 .Wgn file Subbasin: 8 STATION NAME:317185 4/24/2014 12:00:00 AM ArcSWAT 2012.10_0.14
  LATITUDE =  36.33 LONGITUDE = -81.83
  ELEV [m] =1012.90
  RAIN_YRS =  51.00
  7.09  9.34 14.73 19.95 24.28 28.09 29.48 29.32 26.40 20.71 14.55  8.98
 -3.69 -2.32  1.66  6.26 10.97 15.70 17.95 17.33 13.56  6.81  1.93 -2.08
  6.64  6.52  6.47  5.61  4.32  3.14  2.74  2.75  3.95  4.84  5.81  6.17
  6.32  5.73  5.38  4.85  4.19  3.05  2.29  2.45  4.03  5.06  5.35  5.79
  83.8  84.7  96.8  85.3  94.0  94.5 113.9  85.2  75.2  59.7  74.3  85.2
  7.71  8.90  9.94  8.88  8.88  9.32 11.35 10.86 12.11 10.26  9.10  9.00
  2.06  1.93  2.71  2.21  2.30  1.78  1.96  2.31  2.36  3.24  2.03  2.20
  0.28  0.30  0.31  0.27  0.27  0.28  0.29  0.22  0.18  0.16  0.23  0.26
  0.45  0.42  0.41  0.42  0.43  0.42  0.41  0.41  0.41  0.40  0.38  0.42
 10.47  9.54 10.61  9.66  9.88  9.78 10.36  8.51  6.92  6.67  8.16  9.51
  7.74  6.17 11.69 22.45 25.47 24.14 41.08 32.54 34.54  9.66 12.87  8.23
  8.21 11.44 14.92 19.82 22.84 24.39 23.63 21.24 18.06 13.37  9.85  8.00
 -3.35 -2.40 -0.14  2.82  5.50 17.49 19.71 19.55  6.40  3.69  0.47 -2.28
  2.56  2.61  2.82  2.64  2.16  1.84  1.68  1.48  1.58  1.68  2.05  2.23
