 .Sol file Watershed HRU:37 Subbasin:1 HRU:37 Luse:PAST Soil: VA017 Slope: 2-5 4/9/2014 12:00:00 AM ArcSWAT 2012.10_0.14
 Soil Name: LITZ
 Soil Hydrologic Group: C
 Maximum rooting depth(m) :  939.80
 Porosity fraction from which anions are excluded: 0.500
 Crack volume potential of soil: 0.500
 Texture 1                : SIL-CNX-SIL-WB-UWB
 Depth                [mm]:      304.80      609.60      914.40      939.80
 Bulk Density Moist [g/cc]:        1.35        1.35        1.70        2.50
 Ave. AW Incl. Rock Frag  :        0.17        0.07        0.05        0.01
 Ksat. (est.)      [mm/hr]:        4.80        1.60      400.00       36.00
 Organic Carbon [weight %]:        0.73        0.15        0.05        0.02
 Clay           [weight %]:       18.50       22.50       20.00        5.00
 Silt           [weight %]:       54.40       52.72       40.00       25.00
 Sand           [weight %]:       27.10       24.78       40.00       70.00
 Rock Fragments   [vol. %]:       11.02       65.00       90.00       98.00
 Soil Albedo (Moist)      :        0.06        0.17        0.21        0.22
 Erosion K                :        0.37        0.32        0.00        0.00
 Salinity (EC, Form 5)    :        0.00        0.00        0.00        0.00
 Soil pH                  :        0.00        0.00        0.00        0.00
 Soil CACO3               :        0.00        0.00        0.00        0.00
                              
