 .Wgn file Subbasin: 1 STATION NAME:445057 4/24/2014 12:00:00 AM ArcSWAT 2012.10_0.14
  LATITUDE =  36.75 LONGITUDE = -81.68
  ELEV [m] = 627.90
  RAIN_YRS =  51.00
  4.54  6.10 11.68 17.36 21.22 24.62 26.21 25.79 22.52 17.42 11.75  6.60
 -4.36 -3.21  1.35  6.45 10.84 14.98 16.95 16.52 13.08  7.43  2.57 -1.90
  7.17  7.00  7.13  6.34  4.80  3.47  2.96  3.08  4.21  5.28  6.43  6.81
  7.15  6.56  6.27  5.61  4.34  3.19  2.54  2.65  4.04  5.09  5.86  6.67
  69.8  64.9  86.7  86.7 101.6  94.1 106.9  81.2  80.4  66.3  66.1  70.1
  7.27  7.64  8.31  8.94  9.50 10.71 11.56  8.98 12.67 10.05  8.67  7.51
  2.39  3.01  2.16  2.80  2.31  3.27  2.56  1.75  2.56  2.27  2.45  1.91
  0.28  0.29  0.31  0.28  0.28  0.26  0.28  0.22  0.20  0.18  0.23  0.26
  0.42  0.44  0.40  0.47  0.49  0.45  0.45  0.42  0.42  0.39  0.39  0.39
 10.03  9.43 10.65 10.45 11.10  9.70 10.39  8.49  7.65  7.03  8.13  9.39
  9.85  8.23 15.86 22.58 26.76 27.99 42.65 37.73 35.79 14.89 16.11 11.00
  8.00 11.27 14.83 19.82 23.13 24.76 24.09 21.70 18.60 13.20  9.51  7.75
 -6.02 -5.83 -1.89  1.38  5.50 18.78 20.86 20.74  6.40  2.35 -1.67 -4.95
  3.82  3.66  3.66  3.48  2.75  2.19  2.03  1.77  1.92  2.49  3.01  3.57
