 .Sol file Watershed HRU:7 Subbasin:1 HRU:7 Luse:FRSD Soil: VA001 Slope: 5-9999 4/24/2014 12:00:00 AM ArcSWAT 2012.10_0.14
 Soil Name: WEIKERT
 Soil Hydrologic Group: B
 Maximum rooting depth(m) :  482.60
 Porosity fraction from which anions are excluded: 0.500
 Crack volume potential of soil: 0.500
 Texture 1                : CN-SIL-CN-L-WB
 Depth                [mm]:      177.80      457.20      482.60
 Bulk Density Moist [g/cc]:        1.30        1.30        1.70
 Ave. AW Incl. Rock Frag  :        0.14        0.08        0.05
 Ksat. (est.)      [mm/hr]:       21.46       36.41     3641.38
 Organic Carbon [weight %]:        1.45        0.15        0.05
 Clay           [weight %]:       21.00       21.00       20.00
 Silt           [weight %]:       52.74       37.35       40.00
 Sand           [weight %]:       26.26       41.65       40.00
 Rock Fragments   [vol. %]:       33.02       54.46       90.00
 Soil Albedo (Moist)      :        0.01        0.17        0.21
 Erosion K                :        0.28        0.28        0.00
 Salinity (EC, Form 5)    :        0.00        0.00        0.00
 Soil pH                  :        0.00        0.00        0.00
 Soil CACO3               :        0.00        0.00        0.00
                              
