 .Sol file Watershed HRU:443 Subbasin:8 HRU:53 Luse:PAST Soil: TN143 Slope: 2-5 4/9/2014 12:00:00 AM ArcSWAT 2012.10_0.14
 Soil Name: BAYS
 Soil Hydrologic Group: C
 Maximum rooting depth(m) :  508.00
 Porosity fraction from which anions are excluded: 0.500
 Crack volume potential of soil: 0.500
 Texture 1                : SIL-CN--SICL-WB
 Depth                [mm]:       76.20      482.60      508.00
 Bulk Density Moist [g/cc]:        1.40        1.40        1.70
 Ave. AW Incl. Rock Frag  :        0.19        0.15        0.05
 Ksat. (est.)      [mm/hr]:        1.80        1.10      350.00
 Organic Carbon [weight %]:        0.87        0.44        0.15
 Clay           [weight %]:       26.50       27.50       20.00
 Silt           [weight %]:       50.00       52.50       40.00
 Sand           [weight %]:       23.50       20.00       40.00
 Rock Fragments   [vol. %]:        7.54       17.20       90.00
 Soil Albedo (Moist)      :        0.04        0.10        0.17
 Erosion K                :        0.37        0.32        0.00
 Salinity (EC, Form 5)    :        0.00        0.00        0.00
 Soil pH                  :        0.00        0.00        0.00
 Soil CACO3               :        0.00        0.00        0.00
                              
