 .Wgn file Subbasin: 5 STATION NAME:400836 4/24/2014 12:00:00 AM ArcSWAT 2012.10_0.14
  LATITUDE =  36.48 LONGITUDE = -82.42
  ELEV [m] = 487.70
  RAIN_YRS =  51.00
  7.24  9.61 15.05 20.36 24.56 28.28 29.60 29.47 26.62 20.97 14.87  9.24
 -3.51 -2.21  1.78  6.43 11.20 15.77 17.95 17.47 13.88  7.13  2.20 -1.84
  6.45  6.40  6.35  5.57  4.13  2.94  2.57  2.58  3.77  4.71  5.74  6.04
  6.26  5.67  5.38  4.82  4.19  2.98  2.25  2.35  3.96  5.00  5.31  5.73
  91.2  87.5  99.9  90.9  98.4  96.2 122.0  85.3  81.0  64.6  79.1  90.4
  7.14  7.66  8.62  8.37  7.55  7.39  9.88  8.01 10.42  8.24  8.17  8.63
  2.57  1.99  2.87  2.69  2.39  1.89  3.01  2.46  2.76  2.72  3.15  2.65
  0.30  0.30  0.31  0.27  0.26  0.29  0.30  0.23  0.20  0.18  0.24  0.25
  0.57  0.55  0.56  0.55  0.60  0.61  0.64  0.59  0.55  0.52  0.55  0.54
 12.53 11.06 12.64 11.16 12.40 12.78 14.16 11.18  9.26  8.41 10.29 11.04
  7.60  8.35 15.52 25.99 29.66 27.74 35.74 31.02 30.21 13.95 15.80 11.06
  7.67 10.94 14.58 19.53 22.63 24.13 23.34 21.12 18.14 13.32  9.43  7.54
 -3.35 -2.40 -0.14  2.82  5.50 17.49 19.71 19.55  6.40  3.69  0.47 -2.28
  2.56  2.61  2.82  2.64  2.16  1.84  1.68  1.48  1.58  1.68  2.05  2.23
