 .Sol file Watershed HRU:170 Subbasin:4 HRU:47 Luse:URMD Soil: TN161 Slope: 5-9999 4/24/2014 12:00:00 AM ArcSWAT 2012.10_0.14
 Soil Name: HOLSTON
 Soil Hydrologic Group: B
 Maximum rooting depth(m) : 1905.00
 Porosity fraction from which anions are excluded: 0.500
 Crack volume potential of soil: 0.500
 Texture 1                : L-SCL-CL
 Depth                [mm]:      203.20     1117.60     1905.00
 Bulk Density Moist [g/cc]:        1.42        1.48        1.50
 Ave. AW Incl. Rock Frag  :        0.14        0.11        0.13
 Ksat. (est.)      [mm/hr]:       21.46       10.93        4.49
 Organic Carbon [weight %]:        0.73        0.15        0.15
 Clay           [weight %]:       17.50       26.50       32.50
 Silt           [weight %]:       39.47       17.66       32.82
 Sand           [weight %]:       43.03       55.84       34.68
 Rock Fragments   [vol. %]:        8.47        8.74       18.27
 Soil Albedo (Moist)      :        0.06        0.17        0.17
 Erosion K                :        0.28        0.32        0.32
 Salinity (EC, Form 5)    :        0.00        0.00        0.00
 Soil pH                  :        0.00        0.00        0.00
 Soil CACO3               :        0.00        0.00        0.00
                              
