 .Wgn file Subbasin: 4 STATION NAME:404858 4/24/2014 12:00:00 AM ArcSWAT 2012.10_0.14
  LATITUDE =  36.52 LONGITUDE = -82.53
  ELEV [m] = 391.40
  RAIN_YRS =  51.00
  7.89 10.43 16.09 21.63 25.66 29.10 30.50 30.21 27.25 21.70 15.41  9.68
 -2.67 -1.57  2.40  6.98 11.65 16.07 18.25 17.81 14.29  7.68  2.86 -1.10
  6.18  6.28  6.34  5.51  3.95  2.84  2.47  2.47  3.62  4.52  5.62  5.82
  6.22  5.72  5.45  4.82  4.14  2.97  2.33  2.41  3.94  5.06  5.39  5.77
  92.2  89.8 102.4  89.7  99.5  92.1 123.4  92.0  78.1  66.1  78.4  89.7
  9.19  9.35 11.07  9.62  9.65  8.84 10.89 12.18 11.78 10.60  9.18  9.88
  2.21  1.77  3.18  2.25  2.16  1.62  2.08  2.92  2.39  2.40  2.12  2.30
  0.28  0.28  0.30  0.28  0.27  0.26  0.30  0.22  0.19  0.18  0.23  0.26
  0.44  0.44  0.44  0.43  0.46  0.45  0.47  0.44  0.40  0.40  0.44  0.42
 10.20  9.23 10.80  9.76 10.32  9.72 11.06  8.80  7.10  7.08  8.78  9.65
  8.15  9.30 16.10 25.40 30.25 28.99 36.62 32.84 30.34 14.60 16.30 11.63
  7.67 10.94 14.58 19.53 22.63 24.13 23.34 21.12 18.14 13.32  9.43  7.54
 -3.35 -2.40 -0.14  2.82  5.50 17.49 19.71 19.55  6.40  3.69  0.47 -2.28
  2.56  2.61  2.82  2.64  2.16  1.84  1.68  1.48  1.58  1.68  2.05  2.23
