 .Wgn file Subbasin: 3 STATION NAME:153821 4/24/2014 12:00:00 AM ArcSWAT 2012.10_0.14
  LATITUDE =  36.80 LONGITUDE = -88.50
  ELEV [m] = 134.10
  RAIN_YRS =  51.00
  5.95  8.57 14.51 20.67 25.33 30.02 31.75 31.14 27.50 21.61 14.25  8.04
 -3.85 -2.01  3.00  8.46 13.45 18.26 20.36 19.04 14.70  8.25  3.29 -1.70
  7.03  6.96  6.71  5.47  4.25  3.36  3.03  3.19  4.35  5.18  6.16  6.48
  6.94  6.23  5.84  5.48  4.51  3.45  2.92  3.28  4.78  5.51  5.85  6.35
  88.2  90.5 114.1 123.6 119.0 105.1 108.2  72.9  95.1  83.9 104.9 112.0
 14.18 16.12 16.12 15.26 14.65 17.02 19.36 13.25 19.90 15.32 15.27 15.27
  2.82  3.61  3.61  2.65  2.62  2.35  2.51  2.06  4.07  2.22  2.62  2.70
  0.20  0.21  0.26  0.26  0.24  0.21  0.18  0.15  0.17  0.16  0.21  0.21
  0.38  0.36  0.38  0.42  0.44  0.33  0.38  0.35  0.34  0.35  0.40  0.43
  7.50  6.96  9.31  9.26  9.38  7.13  7.05  5.91  6.01  6.22  7.70  8.34
 12.80 14.43 20.29 22.25 37.09 28.65 46.60 43.55 26.93 16.20 25.57 16.61
  6.29  9.72 13.79 17.98 21.24 23.34 22.75 20.45 17.30 13.07  8.67  6.41
 -3.44 -2.26  0.76  3.28  6.10 18.14 20.53 19.73 15.66  4.22  0.82 -2.22
  3.85  3.85  4.07  3.86  3.14  2.65  2.47  2.19  2.39  2.83  3.53  3.63
