 .Sol file Watershed HRU:320 Subbasin:8 HRU:2 Luse:HAY Soil: NC097 Slope: 2-5 4/24/2014 12:00:00 AM ArcSWAT 2012.10_0.14
 Soil Name: EDNEYVILLE
 Soil Hydrologic Group: B
 Maximum rooting depth(m) : 1524.00
 Porosity fraction from which anions are excluded: 0.500
 Crack volume potential of soil: 0.500
 Texture 1                : L-FSL-SL
 Depth                [mm]:      177.80      762.00     1524.00
 Bulk Density Moist [g/cc]:        1.50        1.50        1.50
 Ave. AW Incl. Rock Frag  :        0.24        0.16        0.12
 Ksat. (est.)      [mm/hr]:       10.55        9.40        8.83
 Organic Carbon [weight %]:        2.62        0.64        0.06
 Clay           [weight %]:       11.50       13.50       12.50
 Silt           [weight %]:       43.23       20.01       19.65
 Sand           [weight %]:       45.27       66.49       67.85
 Rock Fragments   [vol. %]:        7.32        7.32       13.51
 Soil Albedo (Moist)      :        0.01        0.07        0.21
 Erosion K                :        0.24        0.20        0.20
 Salinity (EC, Form 5)    :        0.00        0.00        0.00
 Soil pH                  :        0.00        0.00        0.00
 Soil CACO3               :        0.00        0.00        0.00
                              
