 .Sol file Watershed HRU:33 Subbasin:1 HRU:33 Luse:PAST Soil: VA002 Slope: 0-2 4/9/2014 12:00:00 AM ArcSWAT 2012.10_0.14
 Soil Name: CARBO
 Soil Hydrologic Group: C
 Maximum rooting depth(m) :  838.20
 Porosity fraction from which anions are excluded: 0.500
 Crack volume potential of soil: 0.500
 Texture 1                : SIC-C-UWB
 Depth                [mm]:      254.00      812.80      838.20
 Bulk Density Moist [g/cc]:        1.40        1.38        2.50
 Ave. AW Incl. Rock Frag  :        0.18        0.15        0.01
 Ksat. (est.)      [mm/hr]:        0.72        0.33      450.00
 Organic Carbon [weight %]:        0.44        0.15        0.05
 Clay           [weight %]:       47.50       70.00        5.00
 Silt           [weight %]:       46.98       21.10       25.00
 Sand           [weight %]:        5.52        8.90       70.00
 Rock Fragments   [vol. %]:        3.50        5.34       98.00
 Soil Albedo (Moist)      :        0.10        0.17        0.21
 Erosion K                :        0.37        0.24        0.00
 Salinity (EC, Form 5)    :        0.00        0.00        0.00
 Soil pH                  :        0.00        0.00        0.00
 Soil CACO3               :        0.00        0.00        0.00
                              
