 .Wgn file Subbasin: 6 STATION NAME:441037 4/24/2014 12:00:00 AM ArcSWAT 2012.10_0.14
  LATITUDE =  36.60 LONGITUDE = -82.17
  ELEV [m] = 609.90
  RAIN_YRS =  51.00
  6.84  9.17 14.57 19.89 24.04 27.59 29.05 28.81 25.90 20.48 14.30  8.69
 -4.21 -2.98  1.00  5.55 10.11 14.67 16.77 16.23 12.62  6.08  1.44 -2.67
  6.23  6.18  6.13  5.40  3.96  2.83  2.38  2.46  3.64  4.54  5.64  5.89
  6.27  5.67  5.36  4.83  4.10  3.02  2.34  2.38  3.99  4.94  5.23  5.84
  89.5  87.6 104.6  92.5 106.6 102.2 120.5  87.8  78.7  66.5  77.7  89.8
  6.66  7.47  8.70  7.95  7.53  8.05  8.41  6.89  9.27  8.73  7.56  7.82
  1.84  2.28  3.16  2.66  2.56  4.65  2.83  1.77  2.49  2.61  2.52  2.28
  0.28  0.31  0.34  0.28  0.28  0.32  0.34  0.25  0.20  0.19  0.23  0.27
  0.58  0.57  0.54  0.58  0.64  0.59  0.62  0.57  0.54  0.52  0.57  0.54
 12.24 11.67 13.10 11.96 13.60 13.18 14.74 11.40  9.04  8.67 10.53 11.47
  7.68  7.37 15.65 25.12 28.68 28.20 36.89 32.24 31.87 14.69 15.44  9.93
  7.67 10.94 14.58 19.53 22.63 24.13 23.34 21.12 18.14 13.32  9.43  7.54
 -3.35 -2.40 -0.14  2.82  5.50 17.49 19.71 19.55  6.40  3.69  0.47 -2.28
  2.56  2.61  2.82  2.64  2.16  1.84  1.68  1.48  1.58  1.68  2.05  2.23
