 .Sol file Watershed HRU:234 Subbasin:5 HRU:51 Luse:PAST Soil: TN131 Slope: 5-9999 4/18/2014 12:00:00 AM ArcSWAT 2012.10_0.14
 Soil Name: TALBOTT
 Soil Hydrologic Group: C
 Maximum rooting depth(m) :  965.20
 Porosity fraction from which anions are excluded: 0.500
 Crack volume potential of soil: 0.500
 Texture 1                : SIL-SIC-UWB
 Depth                [mm]:      152.40      939.80      965.20
 Bulk Density Moist [g/cc]:        1.42        1.50        2.50
 Ave. AW Incl. Rock Frag  :        0.19        0.13        0.01
 Ksat. (est.)      [mm/hr]:        2.40        0.17      270.00
 Organic Carbon [weight %]:        0.73        0.29        0.10
 Clay           [weight %]:       21.00       50.00        5.00
 Silt           [weight %]:       52.74       44.74       25.00
 Sand           [weight %]:       26.26        5.26       70.00
 Rock Fragments   [vol. %]:        4.11        5.76       98.00
 Soil Albedo (Moist)      :        0.06        0.13        0.19
 Erosion K                :        0.37        0.24        0.00
 Salinity (EC, Form 5)    :        0.00        0.00        0.00
 Soil pH                  :        0.00        0.00        0.00
 Soil CACO3               :        0.00        0.00        0.00
                              
