 .Sol file Watershed HRU:350 Subbasin:8 HRU:32 Luse:PAST Soil: NC093 Slope: 2-5 4/24/2014 12:00:00 AM ArcSWAT 2012.10_0.14
 Soil Name: ASHE
 Soil Hydrologic Group: B
 Maximum rooting depth(m) :  787.40
 Porosity fraction from which anions are excluded: 0.500
 Crack volume potential of soil: 0.500
 Texture 1                : STV-L-L-SL-UWB
 Depth                [mm]:      177.80      635.00      762.00      787.40
 Bulk Density Moist [g/cc]:        1.48        1.48        1.55        2.50
 Ave. AW Incl. Rock Frag  :        0.24        0.30        0.22        0.02
 Ksat. (est.)      [mm/hr]:       10.55        9.50       36.41      263.88
 Organic Carbon [weight %]:        1.74        0.58        0.19        0.06
 Clay           [weight %]:       17.50       17.50       10.00        5.00
 Silt           [weight %]:       39.47       39.47       23.44       25.00
 Sand           [weight %]:       43.03       43.03       66.56       70.00
 Rock Fragments   [vol. %]:       36.22       10.00       10.00       98.00
 Soil Albedo (Moist)      :        0.01        0.08        0.16        0.20
 Erosion K                :        0.15        0.17        0.17        0.00
 Salinity (EC, Form 5)    :        0.00        0.00        0.00        0.00
 Soil pH                  :        0.00        0.00        0.00        0.00
 Soil CACO3               :        0.00        0.00        0.00        0.00
                              
