 .Sol file Watershed HRU:878 Subbasin:15 HRU:74 Luse:URMD Soil: TN119 Slope: 2-5 4/9/2014 12:00:00 AM ArcSWAT 2012.10_0.14
 Soil Name: COLLEGEDALE
 Soil Hydrologic Group: C
 Maximum rooting depth(m) : 2032.00
 Porosity fraction from which anions are excluded: 0.500
 Crack volume potential of soil: 0.500
 Texture 1                : SIL-SIC
 Depth                [mm]:      152.40     2032.00
 Bulk Density Moist [g/cc]:        1.40        1.52
 Ave. AW Incl. Rock Frag  :        0.19        0.13
 Ksat. (est.)      [mm/hr]:        1.80        0.16
 Organic Carbon [weight %]:        0.87        0.15
 Clay           [weight %]:       26.50       50.00
 Silt           [weight %]:       50.00       44.74
 Sand           [weight %]:       23.50        5.26
 Rock Fragments   [vol. %]:        4.64        3.51
 Soil Albedo (Moist)      :        0.04        0.17
 Erosion K                :        0.37        0.24
 Salinity (EC, Form 5)    :        0.00        0.00
 Soil pH                  :        0.00        0.00
 Soil CACO3               :        0.00        0.00
                              
