 .Sol file Watershed HRU:1095 Subbasin:18 HRU:66 Luse:PAST Soil: TN111 Slope: 5-9999 4/9/2014 12:00:00 AM ArcSWAT 2012.10_0.14
 Soil Name: SEQUOIA
 Soil Hydrologic Group: C
 Maximum rooting depth(m) : 1778.00
 Porosity fraction from which anions are excluded: 0.500
 Crack volume potential of soil: 0.500
 Texture 1                : SIL-SIC-WB
 Depth                [mm]:      152.40      914.40     1778.00
 Bulk Density Moist [g/cc]:        1.40        1.45        1.70
 Ave. AW Incl. Rock Frag  :        0.19        0.13        0.05
 Ksat. (est.)      [mm/hr]:        2.50        0.17       92.00
 Organic Carbon [weight %]:        0.73        0.15        0.15
 Clay           [weight %]:       21.00       47.50       20.00
 Silt           [weight %]:       52.74       46.98       40.00
 Sand           [weight %]:       26.26        5.52       40.00
 Rock Fragments   [vol. %]:        1.34       10.40       90.00
 Soil Albedo (Moist)      :        0.06        0.17        0.17
 Erosion K                :        0.37        0.24        0.00
 Salinity (EC, Form 5)    :        0.00        0.00        0.00
 Soil pH                  :        0.00        0.00        0.00
 Soil CACO3               :        0.00        0.00        0.00
                              
