 .Wgn file Subbasin: 10 STATION NAME:447372 4/24/2014 12:00:00 AM ArcSWAT 2012.10_0.14
  LATITUDE =  36.67 LONGITUDE = -83.37
  ELEV [m] = 435.90
  RAIN_YRS =  51.00
  6.40  8.98 14.18 19.92 23.71 27.49 29.23 28.97 25.52 20.12 14.01  8.05
 -2.77 -0.98  2.93  8.10 12.48 16.87 18.93 18.31 14.57  8.95  4.09 -0.79
  7.23  7.16  7.22  6.58  4.73  3.74  3.66  3.25  4.42  5.28  6.48  6.91
  6.85  6.23  6.06  5.50  4.28  3.25  2.86  2.64  4.20  4.97  5.63  6.43
  87.4  95.4 105.2  97.4 123.2 116.8 116.9  93.2  87.4  81.5 100.7 103.8
  9.37 10.34 10.18  9.20 11.84 11.79 12.07 13.49 14.48 11.78 11.73 11.24
  1.97  2.14  2.23  1.80  2.38  2.14  2.13  2.33  1.98  2.00  2.56  2.50
  0.29  0.31  0.32  0.28  0.31  0.29  0.30  0.22  0.19  0.19  0.25  0.30
  0.43  0.45  0.39  0.46  0.45  0.46  0.41  0.36  0.35  0.39  0.42  0.43
 10.32 10.05 10.71 10.18 11.08 10.37 10.44  7.86  6.91  7.37  9.18 10.64
  7.18 12.26 11.21 17.48 32.19 30.26 37.00 32.65 24.86 14.66 15.24 11.37
  7.04 10.52 14.41 19.53 23.17 24.93 24.22 22.04 19.32 13.66  9.22  7.00
 -4.42 -3.70 -1.29  1.99  5.21 18.27 20.30 20.18  6.40  3.31 -0.46 -3.05
  3.04  3.06  3.18  3.12  2.41  2.03  1.86  1.81  2.04  2.27  2.77  2.87
