 .Wgn file Subbasin: 14 STATION NAME:400705 4/24/2014 12:00:00 AM ArcSWAT 2012.10_0.14
  LATITUDE =  36.23 LONGITUDE = -88.08
  ELEV [m] = 111.30
  RAIN_YRS =  51.00
  7.45 10.22 15.78 21.67 25.78 29.84 31.71 31.49 27.94 22.13 15.64  9.53
 -3.85 -2.16  2.42  7.53 12.41 17.02 19.22 18.16 14.32  7.30  2.70 -1.94
  7.01  7.03  6.85  5.58  4.02  3.14  2.74  2.96  4.13  4.92  6.08  6.46
  7.03  6.28  5.87  5.44  4.55  3.31  2.66  3.04  4.64  5.48  5.93  6.24
 100.5 108.9 130.2 119.4 126.4 104.5 106.4  90.6 100.7  89.4 123.6 131.5
 11.02 12.91 13.88 12.18 12.78 11.65 11.35 12.19 18.08 12.97 17.03 16.17
  1.90  1.94  2.53  2.37  2.19  2.74  2.63  2.51  6.27  1.76  4.21  2.35
  0.24  0.24  0.28  0.27  0.26  0.25  0.25  0.21  0.18  0.17  0.24  0.23
  0.48  0.47  0.45  0.46  0.50  0.49  0.50  0.44  0.50  0.42  0.45  0.46
  9.80  8.80 10.32 10.00 10.62  9.96 10.20  8.46  8.04  7.10  9.12  9.45
 13.02 15.00 21.52 20.54 38.94 24.60 45.43 43.33 33.16 20.18 25.84 21.37
  6.24  9.68 13.74 17.98 21.20 23.30 22.67 20.36 17.22 13.03  8.67  6.37
 -2.61 -1.30  1.48  3.28  6.10 18.14 20.53 19.73 15.66  4.22  1.41 -1.77
  3.66  3.66  3.72  3.65  3.00  2.33  2.17  2.04  2.11  2.43  3.00  3.41
