 .Sol file Watershed HRU:782 Subbasin:17 HRU:68 Luse:PAST Soil: TN128 Slope: 0-2 4/18/2014 12:00:00 AM ArcSWAT 2012.10_0.14
 Soil Name: DANDRIDGE
 Soil Hydrologic Group: D
 Maximum rooting depth(m) :  889.00
 Porosity fraction from which anions are excluded: 0.500
 Crack volume potential of soil: 0.500
 Texture 1                : SIL-SH--SIC-WB
 Depth                [mm]:       76.20      431.80      889.00
 Bulk Density Moist [g/cc]:        1.45        1.48        1.70
 Ave. AW Incl. Rock Frag  :        0.18        0.13        0.05
 Ksat. (est.)      [mm/hr]:        1.60        0.23      450.00
 Organic Carbon [weight %]:        0.73        0.15        0.05
 Clay           [weight %]:       26.50       42.50       20.00
 Silt           [weight %]:       50.00       49.80       40.00
 Sand           [weight %]:       23.50        7.70       40.00
 Rock Fragments   [vol. %]:       11.74       30.00       90.00
 Soil Albedo (Moist)      :        0.06        0.17        0.21
 Erosion K                :        0.24        0.17        0.00
 Salinity (EC, Form 5)    :        0.00        0.00        0.00
 Soil pH                  :        0.00        0.00        0.00
 Soil CACO3               :        0.00        0.00        0.00
                              
