 .Wgn file Subbasin: 18 STATION NAME:408179 4/24/2014 12:00:00 AM ArcSWAT 2012.10_0.14
  LATITUDE =  35.87 LONGITUDE = -83.55
  ELEV [m] = 283.50
  RAIN_YRS =  51.00
  8.46 11.02 16.53 21.61 25.61 29.39 30.82 30.54 27.58 21.88 15.64 10.25
 -3.75 -2.47  1.34  5.86 10.67 15.46 17.65 17.17 13.53  6.27  1.13 -2.52
  6.58  6.67  6.42  5.32  4.05  3.02  2.79  2.83  3.88  4.72  5.65  6.13
  6.32  5.97  5.65  5.06  4.48  3.42  2.68  2.79  4.24  5.40  5.57  5.85
  93.6  92.2 110.4  94.4 107.9  95.1 111.2  84.7  83.1  63.7  80.2  94.6
  9.86 11.30 13.70 10.15 11.47 10.63 12.89 10.88 12.53  9.93  9.62 10.93
  2.10  2.57  3.54  2.14  2.23  1.51  2.56  1.81  1.93  1.74  1.69  2.23
  0.26  0.26  0.28  0.23  0.26  0.24  0.26  0.20  0.18  0.15  0.22  0.23
  0.39  0.41  0.39  0.45  0.45  0.41  0.42  0.40  0.41  0.40  0.37  0.42
  9.27  8.56  9.82  8.84  9.84  8.68  9.58  7.64  7.00  6.34  7.80  8.90
  8.94 11.18 15.99 26.72 33.84 28.66 35.75 25.61 28.98 14.05 16.18 13.11
  7.37 10.68 14.41 19.40 22.42 23.88 23.00 20.87 17.98 13.74  9.60  7.37
 -2.34 -1.31  0.86  3.45  5.50 18.27 20.30 20.18 16.77  4.54  1.34 -1.04
  3.02  3.10  3.30  3.18  2.80  2.51  2.44  2.18  2.25  2.23  2.57  2.81
