 .Sol file Watershed HRU:771 Subbasin:17 HRU:57 Luse:FRSE Soil: TN110 Slope: 2-5 4/18/2014 12:00:00 AM ArcSWAT 2012.10_0.14
 Soil Name: FULLERTON
 Soil Hydrologic Group: B
 Maximum rooting depth(m) : 2286.00
 Porosity fraction from which anions are excluded: 0.500
 Crack volume potential of soil: 0.500
 Texture 1                : CR--SIL-CR--SICL-CR--C
 Depth                [mm]:      381.00      482.60     2286.00
 Bulk Density Moist [g/cc]:        1.50        1.50        1.50
 Ave. AW Incl. Rock Frag  :        0.14        0.13        0.12
 Ksat. (est.)      [mm/hr]:        2.20        0.81        1.60
 Organic Carbon [weight %]:        0.73        0.24        0.08
 Clay           [weight %]:       21.00       29.00       55.00
 Silt           [weight %]:       52.74       52.17       27.81
 Sand           [weight %]:       26.26       18.83       17.19
 Rock Fragments   [vol. %]:       29.76       30.57       30.57
 Soil Albedo (Moist)      :        0.06        0.14        0.20
 Erosion K                :        0.28        0.24        0.20
 Salinity (EC, Form 5)    :        0.00        0.00        0.00
 Soil pH                  :        0.00        0.00        0.00
 Soil CACO3               :        0.00        0.00        0.00
                              
