 .Wgn file Subbasin: 17 STATION NAME:404955 4/24/2014 12:00:00 AM ArcSWAT 2012.10_0.14
  LATITUDE =  35.95 LONGITUDE = -83.92
  ELEV [m] = 272.80
  RAIN_YRS =  51.00
  8.07 10.48 15.89 21.30 25.38 29.18 30.80 30.56 27.58 21.65 15.64  9.93
 -2.21 -0.76  3.39  8.17 12.91 17.36 19.70 19.23 15.74  8.68  3.60 -0.57
  6.09  6.19  6.15  5.21  3.91  2.86  2.62  2.67  3.73  4.44  5.46  5.70
  5.85  5.35  5.30  4.95  4.10  2.83  2.05  2.25  3.88  4.89  5.14  5.39
 113.6 104.7 125.9 102.0 111.5 103.4 124.1  89.4  83.5  71.2 100.3 116.0
  9.86 10.70 13.10 10.37 11.39 10.43 11.58 10.55 11.50 10.27 10.85 13.28
  2.01  2.06  2.80  2.43  3.27  2.80  2.26  2.42  2.26  1.82  2.23  2.80
  0.26  0.28  0.29  0.25  0.27  0.26  0.27  0.22  0.19  0.16  0.23  0.25
  0.52  0.52  0.51  0.54  0.53  0.54  0.57  0.49  0.48  0.46  0.50  0.50
 11.06 10.36 11.56 10.46 11.26 10.88 11.78  9.26  7.86  7.04  9.45 10.20
  8.61 11.23 15.53 24.91 33.80 27.57 36.51 24.92 27.26 13.61 14.74 12.71
  7.37 10.68 14.41 19.40 22.42 23.88 23.00 20.87 17.98 13.74  9.60  7.37
 -2.34 -1.31  0.86  3.45  5.50 18.27 20.30 20.18 16.77  4.54  1.34 -1.04
  3.02  3.10  3.30  3.18  2.80  2.51  2.44  2.18  2.25  2.23  2.57  2.81
