 .Wgn file Subbasin: 22 STATION NAME:406750 4/24/2014 12:00:00 AM ArcSWAT 2012.10_0.14
  LATITUDE =  36.00 LONGITUDE = -84.25
  ELEV [m] = 275.80
  RAIN_YRS =  51.00
  7.88 10.37 16.21 21.61 25.57 29.34 30.92 30.67 27.32 21.74 15.13 10.14
 -2.69 -1.56  2.71  7.27 12.10 16.69 19.11 18.65 14.96  8.01  2.70 -0.73
  6.10  6.27  6.27  5.53  4.20  3.12  3.31  2.96  4.22  4.75  5.63  6.73
  6.16  5.61  5.31  5.14  4.35  3.13  2.29  2.58  4.05  5.20  5.28  6.12
 122.2 113.4 141.6 115.8 121.0 109.0 140.1  88.9  96.4  75.7 117.0 154.1
 12.64 13.45 15.58 14.34 14.29 13.60 16.43 12.81 15.64 11.94 14.12 26.85
  2.09  2.50  2.48  3.51  2.73  2.47  3.12  3.31  1.99  1.62  2.60  7.43
  0.28  0.27  0.29  0.25  0.25  0.24  0.28  0.22  0.18  0.17  0.23  0.27
  0.42  0.45  0.42  0.42  0.45  0.45  0.45  0.37  0.37  0.35  0.42  0.43
 10.06  9.18 10.41  8.98  9.72  9.22 10.44  7.92  6.73  6.54  8.53  9.95
 10.51 12.57 16.81 24.07 35.58 28.40 38.84 27.68 26.59 14.36 16.23 14.12
  6.79 10.06 13.91 18.86 21.70 23.17 22.17 20.11 17.43 13.37  9.01  6.83
 -4.27 -2.96 -0.36  3.20  5.21 18.27 20.30 20.18 16.77  3.00  0.31 -2.57
  2.72  2.73  2.78  2.69  2.12  1.83  1.74  1.61  1.62  1.69  2.11  2.48
