 .Wgn file Subbasin: 25 STATION NAME:405828 4/24/2014 12:00:00 AM ArcSWAT 2012.10_0.14
  LATITUDE =  36.03 LONGITUDE = -87.67
  ELEV [m] = 230.00
  RAIN_YRS =  51.00
  6.16  7.98 13.29 20.84 25.35 29.11 30.93 30.34 27.28 21.86 11.75  7.68
 -4.35 -2.58  1.98  8.74 13.30 17.70 19.73 18.65 14.99  8.06  1.85 -2.34
  7.70  6.54  7.50  5.68  4.67  3.70  3.11  3.40  4.34  5.16 10.04  6.78
  7.52  5.61  6.22  5.44  4.59  3.36  3.08  3.17  4.74  5.44  7.26  6.28
  77.0  98.3 128.6 125.4 103.9  99.7 108.8  77.6  53.2  65.4 173.0 103.3
 12.10 15.51 15.84 15.24 16.69 16.64 16.23 14.51  8.80 10.14 21.36 13.43
  2.86  2.56  2.36  2.83  5.49  2.56  2.41  1.58  1.16  1.07  2.52  2.18
  0.22  0.24  0.23  0.25  0.20  0.17  0.22  0.16  0.14  0.14  0.21  0.25
  0.39  0.34  0.47  0.40  0.49  0.41  0.33  0.33  0.39  0.40  0.49  0.35
  8.21  7.47  9.45  8.91  8.82  6.73  7.64  5.82  5.55  5.73  8.62  8.73
 14.80 15.57 21.98 22.64 40.97 27.75 48.85 41.57 27.70 17.70 26.72 18.10
  6.45  9.76 13.70 18.35 21.33 23.21 22.29 19.99 17.10 13.11  8.88  6.49
 -2.20 -0.04  1.59  3.15  6.17 18.81 20.84 20.18 16.46  4.34  1.55 -0.70
  3.24  3.23  3.45  3.32  2.77  2.08  1.80  1.73  2.19  2.22  2.64  3.03
