 .Sol file Watershed HRU:1826 Subbasin:27 HRU:80 Luse:PAST Soil: TN026 Slope: 0-2 4/9/2014 12:00:00 AM ArcSWAT 2012.10_0.14
 Soil Name: PADEN
 Soil Hydrologic Group: C
 Maximum rooting depth(m) : 2286.00
 Porosity fraction from which anions are excluded: 0.500
 Crack volume potential of soil: 0.500
 Texture 1                : SIL-SICL-CL-CL
 Depth                [mm]:      203.20      711.20     1168.40     2286.00
 Bulk Density Moist [g/cc]:        1.38        1.48        1.70        1.70
 Ave. AW Incl. Rock Frag  :        0.21        0.19        0.12        0.04
 Ksat. (est.)      [mm/hr]:        1.40        0.83        0.90        0.18
 Organic Carbon [weight %]:        1.02        0.15        0.15        0.15
 Clay           [weight %]:       25.00       27.50       27.50       35.00
 Silt           [weight %]:       65.77       65.34       45.13       39.55
 Sand           [weight %]:        9.23        7.16       27.37       25.45
 Rock Fragments   [vol. %]:        2.66        2.85        3.27       10.00
 Soil Albedo (Moist)      :        0.03        0.17        0.17        0.17
 Erosion K                :        0.43        0.43        0.43        0.24
 Salinity (EC, Form 5)    :        0.00        0.00        0.00        0.00
 Soil pH                  :        0.00        0.00        0.00        0.00
 Soil CACO3               :        0.00        0.00        0.00        0.00
                              
