 .Sol file Watershed HRU:1906 Subbasin:28 HRU:67 Luse:FRSE Soil: TN064 Slope: 5-9999 4/9/2014 12:00:00 AM ArcSWAT 2012.10_0.14
 Soil Name: NOLIN
 Soil Hydrologic Group: B
 Maximum rooting depth(m) : 1651.00
 Porosity fraction from which anions are excluded: 0.500
 Crack volume potential of soil: 0.500
 Texture 1                : SIL-SICL-L
 Depth                [mm]:      203.20     1320.80     1651.00
 Bulk Density Moist [g/cc]:        1.30        1.38        1.42
 Ave. AW Incl. Rock Frag  :        0.22        0.20        0.14
 Ksat. (est.)      [mm/hr]:        1.80        0.98        7.20
 Organic Carbon [weight %]:        1.74        0.67        0.67
 Clay           [weight %]:       23.50       27.50       20.00
 Silt           [weight %]:       67.08       65.34       42.62
 Sand           [weight %]:        9.42        7.16       37.38
 Rock Fragments   [vol. %]:        1.24        1.31       17.83
 Soil Albedo (Moist)      :        0.01        0.06        0.06
 Erosion K                :        0.43        0.43        0.43
 Salinity (EC, Form 5)    :        0.00        0.00        0.00
 Soil pH                  :        0.00        0.00        0.00
 Soil CACO3               :        0.00        0.00        0.00
                              
