 .Sol file Watershed HRU:1145 Subbasin:23 HRU:46 Luse:FRSE Soil: TN204 Slope: 2-5 4/24/2014 12:00:00 AM ArcSWAT 2012.10_0.14
 Soil Name: TANASEE
 Soil Hydrologic Group: B
 Maximum rooting depth(m) : 1651.00
 Porosity fraction from which anions are excluded: 0.500
 Crack volume potential of soil: 0.500
 Texture 1                : ST--SL-ST--SL-GR--SL-GR--LS
 Depth                [mm]:      177.80      330.20      787.40     1651.00
 Bulk Density Moist [g/cc]:        1.20        1.48        1.48        1.52
 Ave. AW Incl. Rock Frag  :        0.31        0.24        0.18        0.15
 Ksat. (est.)      [mm/hr]:        7.07        2.64        1.41        8.19
 Organic Carbon [weight %]:        8.14        2.71        0.90        0.30
 Clay           [weight %]:       11.50       11.50       11.50        3.50
 Silt           [weight %]:       23.11       23.11       23.11       16.09
 Sand           [weight %]:       65.39       65.39       65.39       80.41
 Rock Fragments   [vol. %]:       24.60       28.62       28.94       37.52
 Soil Albedo (Moist)      :        0.01        0.01        0.04        0.13
 Erosion K                :        0.15        0.15        0.15        0.10
 Salinity (EC, Form 5)    :        0.00        0.00        0.00        0.00
 Soil pH                  :        0.00        0.00        0.00        0.00
 Soil CACO3               :        0.00        0.00        0.00        0.00
                              
