 .Sol file Watershed HRU:989 Subbasin:21 HRU:4 Luse:FRST Soil: TN095 Slope: 5-9999 4/24/2014 12:00:00 AM ArcSWAT 2012.10_0.14
 Soil Name: BOULDIN
 Soil Hydrologic Group: B
 Maximum rooting depth(m) : 2286.00
 Porosity fraction from which anions are excluded: 0.500
 Crack volume potential of soil: 0.500
 Texture 1                : ST--SL-ST--SCL
 Depth                [mm]:      457.20     2286.00
 Bulk Density Moist [g/cc]:        1.42        1.48
 Ave. AW Incl. Rock Frag  :        0.28        0.28
 Ksat. (est.)      [mm/hr]:       21.99        3.45
 Organic Carbon [weight %]:        0.87        0.15
 Clay           [weight %]:       15.00       26.00
 Silt           [weight %]:       19.09       17.78
 Sand           [weight %]:       65.91       56.22
 Rock Fragments   [vol. %]:       30.00       30.00
 Soil Albedo (Moist)      :        0.04        0.17
 Erosion K                :        0.20        0.20
 Salinity (EC, Form 5)    :        0.00        0.00
 Soil pH                  :        0.00        0.00
 Soil CACO3               :        0.00        0.00
                              
