 .Sol file Watershed HRU:1833 Subbasin:27 HRU:87 Luse:WETF Soil: TN010 Slope: 0-2 4/9/2014 12:00:00 AM ArcSWAT 2012.10_0.14
 Soil Name: WAVERLY
 Soil Hydrologic Group: B
 Maximum rooting depth(m) : 1524.00
 Porosity fraction from which anions are excluded: 0.500
 Crack volume potential of soil: 0.500
 Texture 1                : SIL-SIL
 Depth                [mm]:      127.00     1524.00
 Bulk Density Moist [g/cc]:        1.45        1.48
 Ave. AW Incl. Rock Frag  :        0.21        0.22
 Ksat. (est.)      [mm/hr]:        3.30        1.20
 Organic Carbon [weight %]:        1.16        0.39
 Clay           [weight %]:       12.00       14.00
 Silt           [weight %]:       67.25       71.84
 Sand           [weight %]:       20.75       14.16
 Rock Fragments   [vol. %]:        0.00        0.00
 Soil Albedo (Moist)      :        0.02        0.11
 Erosion K                :        0.43        0.43
 Salinity (EC, Form 5)    :        0.00        0.00
 Soil pH                  :        0.00        0.00
 Soil CACO3               :        0.00        0.00
                              
