 .Sol file Watershed HRU:1448 Subbasin:29 HRU:34 Luse:PAST Soil: TN077 Slope: 2-5 4/24/2014 12:00:00 AM ArcSWAT 2012.10_0.14
 Soil Name: ETOWAH
 Soil Hydrologic Group: B
 Maximum rooting depth(m) : 1778.00
 Porosity fraction from which anions are excluded: 0.500
 Crack volume potential of soil: 0.500
 Texture 1                : SIL-SICL-SICL
 Depth                [mm]:      177.80      965.20     1778.00
 Bulk Density Moist [g/cc]:        1.38        1.42        1.48
 Ave. AW Incl. Rock Frag  :        0.29        0.26        0.24
 Ksat. (est.)      [mm/hr]:       14.76        4.60        1.59
 Organic Carbon [weight %]:        1.16        0.15        0.15
 Clay           [weight %]:       21.00       29.00       38.50
 Silt           [weight %]:       52.74       52.17       54.15
 Sand           [weight %]:       26.26       18.83        7.35
 Rock Fragments   [vol. %]:        6.90        7.13        7.37
 Soil Albedo (Moist)      :        0.02        0.17        0.17
 Erosion K                :        0.37        0.32        0.32
 Salinity (EC, Form 5)    :        0.00        0.00        0.00
 Soil pH                  :        0.00        0.00        0.00
 Soil CACO3               :        0.00        0.00        0.00
                              
