 .Sol file Watershed HRU:1406 Subbasin:22 HRU:89 Luse:PAST Soil: AL006 Slope: 5-9999 4/9/2014 12:00:00 AM ArcSWAT 2012.10_0.14
 Soil Name: DECATUR
 Soil Hydrologic Group: B
 Maximum rooting depth(m) : 1828.80
 Porosity fraction from which anions are excluded: 0.500
 Crack volume potential of soil: 0.500
 Texture 1                : SICL-SIC-C
 Depth                [mm]:      177.80      508.00     1828.80
 Bulk Density Moist [g/cc]:        1.40        1.38        1.35
 Ave. AW Incl. Rock Frag  :        0.17        0.17        0.16
 Ksat. (est.)      [mm/hr]:        3.40        1.40        3.80
 Organic Carbon [weight %]:        0.73        0.24        0.08
 Clay           [weight %]:       33.50       47.50       47.50
 Silt           [weight %]:       47.80       46.98       29.16
 Sand           [weight %]:       18.70        5.52       23.34
 Rock Fragments   [vol. %]:        3.50        3.44        3.38
 Soil Albedo (Moist)      :        0.06        0.14        0.20
 Erosion K                :        0.32        0.28        0.24
 Salinity (EC, Form 5)    :        0.00        0.00        0.00
 Soil pH                  :        0.00        0.00        0.00
 Soil CACO3               :        0.00        0.00        0.00
                              
