 .Wgn file Subbasin: 23 STATION NAME:311564 4/24/2014 12:00:00 AM ArcSWAT 2012.10_0.14
  LATITUDE =  35.62 LONGITUDE = -83.10
  ELEV [m] = 798.60
  RAIN_YRS =  51.00
  7.80  9.76 14.50 19.48 22.90 26.14 27.46 27.16 24.58 19.85 14.58  9.41
 -5.50 -4.41 -0.71  3.32  7.65 11.99 14.15 13.85 10.54  3.74 -0.50 -4.00
  6.06  6.09  6.21  5.55  4.12  2.90  2.61  2.59  3.43  4.28  5.42  5.70
  6.20  5.69  5.26  4.76  4.36  3.31  2.47  2.53  4.23  5.20  5.39  5.74
 116.7 113.2 136.5 106.5 117.2 112.6 120.4 118.4  95.5  69.3  90.4 109.3
 11.74 12.71 13.21  9.81 10.48  9.64  9.33 10.82 12.46 10.84 10.65 11.70
  1.71  1.94  2.20  1.87  2.31  2.36  2.06  2.18  2.39  2.25  1.88  2.15
  0.27  0.29  0.30  0.28  0.29  0.29  0.33  0.27  0.20  0.17  0.23  0.27
  0.44  0.43  0.48  0.47  0.54  0.55  0.55  0.55  0.50  0.43  0.43  0.40
 10.00  9.37 11.32 10.44 11.94 11.68 13.12 11.66  8.54  6.96  8.59  9.73
  8.94 10.59 15.44 28.04 33.00 29.22 36.87 27.73 32.73 13.64 16.41 12.61
  7.37 10.60 14.29 19.23 22.00 23.38 22.37 20.28 17.43 13.49  9.43  7.37
 -2.34 -1.31  0.86  3.45  5.20 18.27 20.30 20.18 16.77  4.54  1.34 -1.04
  3.02  3.10  3.30  3.18  2.80  2.51  2.44  2.18  2.25  2.23  2.57  2.81
