 .Sol file Watershed HRU:1660 Subbasin:25 HRU:82 Luse:WETF Soil: AL013 Slope: 2-5 4/9/2014 12:00:00 AM ArcSWAT 2012.10_0.14
 Soil Name: CHISCA
 Soil Hydrologic Group: D
 Maximum rooting depth(m) : 1651.00
 Porosity fraction from which anions are excluded: 0.500
 Crack volume potential of soil: 0.500
 Texture 1                : SIL-C-C-C-WB
 Depth                [mm]:      127.00      330.20      812.80     1397.00     1651.00
 Bulk Density Moist [g/cc]:        1.42        1.23        1.20        1.20        1.70
 Ave. AW Incl. Rock Frag  :        0.18        0.10        0.08        0.08        0.05
 Ksat. (est.)      [mm/hr]:        4.10        0.14        0.08        0.17      650.00
 Organic Carbon [weight %]:        1.16        0.44        0.15        0.15        0.05
 Clay           [weight %]:       24.50       60.00       67.50       55.00       20.00
 Silt           [weight %]:       51.36       27.99       22.74       27.81       40.00
 Sand           [weight %]:       24.14       12.01        9.76       17.19       40.00
 Rock Fragments   [vol. %]:        4.93        2.38        2.33        9.74       90.00
 Soil Albedo (Moist)      :        0.02        0.10        0.17        0.17        0.21
 Erosion K                :        0.37        0.32        0.32        0.32        0.00
 Salinity (EC, Form 5)    :        0.00        0.00        0.00        0.00        0.00
 Soil pH                  :        0.00        0.00        0.00        0.00        0.00
 Soil CACO3               :        0.00        0.00        0.00        0.00        0.00
                              
