 .Sol file Watershed HRU:1483 Subbasin:23 HRU:64 Luse:SHRB Soil: TN069 Slope: 2-5 4/9/2014 12:00:00 AM ArcSWAT 2012.10_0.14
 Soil Name: MIMOSA
 Soil Hydrologic Group: C
 Maximum rooting depth(m) : 1422.40
 Porosity fraction from which anions are excluded: 0.500
 Crack volume potential of soil: 0.500
 Texture 1                : SIL-SIC-C-UWB
 Depth                [mm]:      152.40      304.80     1397.00     1422.40
 Bulk Density Moist [g/cc]:        1.40        1.40        1.45        2.50
 Ave. AW Incl. Rock Frag  :        0.19        0.16        0.11        0.01
 Ksat. (est.)      [mm/hr]:        1.90        0.27        0.33       77.00
 Organic Carbon [weight %]:        1.16        0.15        0.15        0.05
 Clay           [weight %]:       26.50       45.00       52.50        5.00
 Silt           [weight %]:       50.00       47.63       29.36       25.00
 Sand           [weight %]:       23.50        7.37       18.14       70.00
 Rock Fragments   [vol. %]:        7.02        2.70        2.80       98.00
 Soil Albedo (Moist)      :        0.02        0.17        0.17        0.21
 Erosion K                :        0.37        0.28        0.24        0.00
 Salinity (EC, Form 5)    :        0.00        0.00        0.00        0.00
 Soil pH                  :        0.00        0.00        0.00        0.00
 Soil CACO3               :        0.00        0.00        0.00        0.00
                              
