 .Wgn file Subbasin: 28 STATION NAME:407834 4/24/2014 12:00:00 AM ArcSWAT 2012.10_0.14
  LATITUDE =  35.85 LONGITUDE = -84.70
  ELEV [m] = 262.10
  RAIN_YRS =  51.00
  7.80 10.22 15.63 21.28 25.37 29.20 30.81 30.55 27.50 21.74 15.42  9.64
 -3.81 -2.75  1.27  6.03 10.78 15.60 17.83 17.39 13.68  6.52  1.51 -2.44
  5.90  6.23  6.37  5.59  4.13  3.11  2.88  2.81  3.88  4.50  5.52  5.53
  6.31  5.87  5.36  4.93  4.43  3.21  2.56  2.66  4.31  5.28  5.37  5.69
 130.3 122.0 150.2 120.9 130.0 117.8 139.6 106.7 107.9  85.0 122.3 141.7
 13.03 13.79 16.34 13.59 15.06 13.81 12.77 14.06 17.14 14.23 15.35 16.33
  1.95  2.01  2.28  2.13  3.86  2.34  1.76  3.02  2.57  2.16  1.89  2.53
  0.26  0.26  0.28  0.24  0.26  0.25  0.29  0.22  0.20  0.17  0.23  0.25
  0.45  0.45  0.42  0.47  0.46  0.42  0.46  0.45  0.41  0.39  0.41  0.45
  9.94  8.84 10.20  9.34 10.06  9.06 10.78  8.90  7.52  6.66  8.39  9.69
 12.00 13.05 18.02 24.26 35.98 29.18 42.25 28.54 25.52 14.77 16.23 14.31
  6.79 10.06 13.91 18.86 21.70 23.17 22.17 20.11 17.43 13.37  9.01  6.83
 -1.96 -0.96  1.14  3.50  5.21 18.27 20.30 20.18 16.77  4.77  1.60 -0.77
  2.64  2.74  2.95  2.76  2.33  2.01  1.91  1.79  1.88  1.86  2.16  2.40
