 .Sol file Watershed HRU:1837 Subbasin:27 HRU:91 Luse:WETF Soil: TN032 Slope: 2-5 4/9/2014 12:00:00 AM ArcSWAT 2012.10_0.14
 Soil Name: BEASON
 Soil Hydrologic Group: C
 Maximum rooting depth(m) : 2032.00
 Porosity fraction from which anions are excluded: 0.500
 Crack volume potential of soil: 0.500
 Texture 1                : SIL-SICL-SICL-VAR
 Depth                [mm]:      177.80      457.20     1524.00     2032.00
 Bulk Density Moist [g/cc]:        1.45        1.50        1.55        1.50
 Ave. AW Incl. Rock Frag  :        0.20        0.18        0.17        0.10
 Ksat. (est.)      [mm/hr]:        2.00        1.30        0.28      180.00
 Organic Carbon [weight %]:        1.16        0.44        0.15        0.15
 Clay           [weight %]:       26.50       33.00       39.50       15.00
 Silt           [weight %]:       50.00       47.81       53.27       30.00
 Sand           [weight %]:       23.50       19.19        7.23       55.00
 Rock Fragments   [vol. %]:        1.38        1.43        1.48       20.00
 Soil Albedo (Moist)      :        0.02        0.10        0.17        0.17
 Erosion K                :        0.37        0.32        0.32        0.00
 Salinity (EC, Form 5)    :        0.00        0.00        0.00        0.00
 Soil pH                  :        0.00        0.00        0.00        0.00
 Soil CACO3               :        0.00        0.00        0.00        0.00
                              
