 .Wgn file Subbasin: 29 STATION NAME:408203 4/24/2014 12:00:00 AM ArcSWAT 2012.10_0.14
  LATITUDE =  35.75 LONGITUDE = -87.28
  ELEV [m] = 167.90
  RAIN_YRS =  51.00
  8.62 11.38 16.65 22.39 26.20 29.95 31.73 31.50 28.18 22.64 16.22 10.56
 -3.31 -1.87  2.45  7.25 12.01 16.65 18.87 18.10 14.23  7.25  2.50 -1.59
  6.53  6.53  6.27  5.00  3.63  2.82  2.49  2.76  3.81  4.49  5.61  6.08
  6.73  6.07  5.73  5.46  4.51  3.21  2.44  2.73  4.52  5.48  5.79  6.25
 107.8 110.4 142.3 124.5 136.3 102.6 117.1  87.2  98.0  87.9 116.2 133.5
 10.81 11.38 14.21 11.73 13.77  9.81 11.11 10.70 12.95 13.33 12.44 13.67
  2.42  2.44  2.72  2.68  3.43  3.45  3.88  3.64  3.55  2.88  2.33  2.41
  0.24  0.26  0.28  0.26  0.25  0.26  0.29  0.21  0.20  0.16  0.24  0.25
  0.53  0.52  0.57  0.58  0.59  0.60  0.59  0.56  0.57  0.52  0.54  0.55
 10.59  9.97 12.08 11.46 11.74 11.92 12.80 10.06  9.48  7.83 10.18 11.18
 16.44 15.97 23.20 23.27 42.04 27.21 49.13 39.03 28.59 18.13 23.36 18.83
  6.45  9.76 13.70 18.35 21.33 23.21 22.29 19.99 17.10 13.11  8.88  6.49
 -2.93 -1.88  0.36  3.15  6.17 18.81 20.84 20.18 16.46  4.34  1.05 -1.57
  3.73  3.79  3.92  3.67  3.20  2.87  2.79  2.64  2.77  2.91  3.39  3.64
