 .Sol file Watershed HRU:1305 Subbasin:21 HRU:69 Luse:SHRB Soil: AL026 Slope: 5-9999 4/9/2014 12:00:00 AM ArcSWAT 2012.10_0.14
 Soil Name: NELLA
 Soil Hydrologic Group: B
 Maximum rooting depth(m) : 1778.00
 Porosity fraction from which anions are excluded: 0.500
 Crack volume potential of soil: 0.500
 Texture 1                : CB--L-CB--SCL-CB--CL
 Depth                [mm]:      203.20      914.40     1778.00
 Bulk Density Moist [g/cc]:        1.38        1.45        1.38
 Ave. AW Incl. Rock Frag  :        0.13        0.10        0.14
 Ksat. (est.)      [mm/hr]:       18.00       10.00        4.30
 Organic Carbon [weight %]:        1.02        0.34        0.11
 Clay           [weight %]:       18.50       28.50       36.00
 Silt           [weight %]:       38.54       17.18       33.08
 Sand           [weight %]:       42.96       54.32       30.92
 Rock Fragments   [vol. %]:       16.66       22.28       16.66
 Soil Albedo (Moist)      :        0.03        0.12        0.19
 Erosion K                :        0.15        0.15        0.15
 Salinity (EC, Form 5)    :        0.00        0.00        0.00
 Soil pH                  :        0.00        0.00        0.00
 Soil CACO3               :        0.00        0.00        0.00
                              
