 .Sol file Watershed HRU:1900 Subbasin:28 HRU:61 Luse:URLD Soil: TN062 Slope: 5-9999 4/9/2014 12:00:00 AM ArcSWAT 2012.10_0.14
 Soil Name: ROCK OUTCROP
 Soil Hydrologic Group: D
 Maximum rooting depth(m) : 1524.00
 Porosity fraction from which anions are excluded: 0.500
 Crack volume potential of soil: 0.500
 Texture 1                : UWB
 Depth                [mm]:     1524.00
 Bulk Density Moist [g/cc]:        2.50
 Ave. AW Incl. Rock Frag  :        0.01
 Ksat. (est.)      [mm/hr]:       31.00
 Organic Carbon [weight %]:        0.00
 Clay           [weight %]:        5.00
 Silt           [weight %]:       25.00
 Sand           [weight %]:       70.00
 Rock Fragments   [vol. %]:       98.00
 Soil Albedo (Moist)      :        0.23
 Erosion K                :        0.01
 Salinity (EC, Form 5)    :        0.00
 Soil pH                  :        0.00
 Soil CACO3               :        0.00
                              
