 .Sol file Watershed HRU:1821 Subbasin:27 HRU:75 Luse:SHRB Soil: TN045 Slope: 2-5 4/9/2014 12:00:00 AM ArcSWAT 2012.10_0.14
 Soil Name: BRANDON
 Soil Hydrologic Group: B
 Maximum rooting depth(m) : 1524.00
 Porosity fraction from which anions are excluded: 0.500
 Crack volume potential of soil: 0.500
 Texture 1                : SIL-SICL-GR--CL
 Depth                [mm]:      228.60      762.00     1524.00
 Bulk Density Moist [g/cc]:        1.30        1.33        1.33
 Ave. AW Incl. Rock Frag  :        0.23        0.21        0.11
 Ksat. (est.)      [mm/hr]:        1.00        0.36        0.85
 Organic Carbon [weight %]:        1.45        0.48        0.16
 Clay           [weight %]:       19.50       27.50       27.50
 Silt           [weight %]:       69.00       65.34       45.13
 Sand           [weight %]:       11.50        7.16       27.37
 Rock Fragments   [vol. %]:        1.24        2.56       43.88
 Soil Albedo (Moist)      :        0.01        0.09        0.17
 Erosion K                :        0.37        0.28        0.17
 Salinity (EC, Form 5)    :        0.00        0.00        0.00
 Soil pH                  :        0.00        0.00        0.00
 Soil CACO3               :        0.00        0.00        0.00
                              
