 .Wgn file Subbasin: 27 STATION NAME:314930 4/24/2014 12:00:00 AM ArcSWAT 2012.10_0.14
  LATITUDE =  35.65 LONGITUDE = -82.70
  ELEV [m] = 662.00
  RAIN_YRS =  51.00
  7.54  8.64 13.40 19.68 24.04 27.01 28.48 28.09 24.39 19.88 14.16  8.13
 -3.25 -2.20  1.50  7.37 11.14 15.19 17.07 16.54 13.23  6.93  2.63 -2.18
  6.61  5.88  6.97  5.61  4.78  3.57  2.70  2.99  4.00  4.70  5.53  6.00
  6.17  5.58  5.60  4.65  3.82  2.60  2.05  2.35  3.73  4.68  5.06  5.49
  58.0  82.4 103.5  79.6  64.0  88.7  79.6 132.8  82.8  81.7  64.4  60.0
  7.10  9.81 12.99  9.67  6.76  9.33  8.42 15.25 16.51 16.62 12.77  7.99
  1.30  1.95  2.40  2.15  1.79  2.86  2.92  2.10  2.50  3.10  2.50  0.81
  0.21  0.25  0.26  0.22  0.21  0.27  0.31  0.26  0.17  0.14  0.17  0.17
  0.37  0.43  0.40  0.51  0.47  0.41  0.43  0.49  0.36  0.42  0.36  0.35
  7.64  8.46  9.45  9.36  8.82  9.45 10.91 10.30  6.40  5.90  6.40  6.28
 10.50  9.83 15.80 30.22 33.62 28.38 39.97 31.90 43.80 15.00 18.06 12.22
  8.51 11.77 15.08 19.94 22.71 24.13 23.34 21.03 17.64 13.87 10.43  8.42
 -3.46 -2.72 -0.33  2.45  5.20 17.49 19.71 19.55 16.01  3.39  0.19 -2.54
  3.94  3.83  3.81  3.58  2.90  2.39  2.28  2.10  2.23  2.63  3.30  3.52
