 .Sol file Watershed HRU:1019 Subbasin:21 HRU:34 Luse:UTRN Soil: TN157 Slope: 0-2 4/24/2014 12:00:00 AM ArcSWAT 2012.10_0.14
 Soil Name: GILPIN
 Soil Hydrologic Group: C
 Maximum rooting depth(m) :  787.40
 Porosity fraction from which anions are excluded: 0.500
 Crack volume potential of soil: 0.500
 Texture 1                : SIL-SICL-CN--L-UWB
 Depth                [mm]:      203.20      609.60      762.00      787.40
 Bulk Density Moist [g/cc]:        1.30        1.35        1.35        2.50
 Ave. AW Incl. Rock Frag  :        0.28        0.22        0.12        0.02
 Ksat. (est.)      [mm/hr]:       21.99        8.15       17.92     3258.07
 Organic Carbon [weight %]:        1.31        0.44        0.15        0.05
 Clay           [weight %]:       21.00       27.50       25.00        5.00
 Silt           [weight %]:       52.74       52.50       36.48       25.00
 Sand           [weight %]:       26.26       20.00       38.52       70.00
 Rock Fragments   [vol. %]:       10.66       27.46       55.65       98.00
 Soil Albedo (Moist)      :        0.02        0.10        0.17        0.21
 Erosion K                :        0.32        0.24        0.24        0.00
 Salinity (EC, Form 5)    :        0.00        0.00        0.00        0.00
 Soil pH                  :        0.00        0.00        0.00        0.00
 Soil CACO3               :        0.00        0.00        0.00        0.00
                              
