 .Wgn file Subbasin: 36 STATION NAME:402648 4/24/2014 12:00:00 AM ArcSWAT 2012.10_0.14
  LATITUDE =  35.45 LONGITUDE = -88.15
  ELEV [m] = 164.90
  RAIN_YRS =  51.00
  8.50 11.06 16.85 22.50 26.62 30.78 32.61 32.21 28.54 23.01 16.14 10.52
 -2.08 -0.35  4.49  9.64 14.23 18.62 20.69 19.67 15.65  9.12  4.21 -0.17
  7.02  6.89  6.48  5.29  3.98  3.09  2.84  3.07  4.16  4.90  5.98  6.49
  6.79  6.12  5.90  5.47  4.29  3.10  2.46  2.86  4.61  5.49  6.02  6.37
  99.0 103.5 129.5 129.7 138.0 110.2 106.1  77.0  95.5  85.5 120.4 131.8
 13.25 15.44 16.39 15.61 17.19 14.85 17.39 12.20 18.82 15.76 16.78 17.66
  2.52  2.63  2.68  2.38  2.13  1.69  2.10  1.53  4.24  1.78  2.25  2.51
  0.23  0.23  0.26  0.24  0.21  0.21  0.20  0.16  0.18  0.15  0.22  0.21
  0.39  0.43  0.37  0.41  0.47  0.38  0.35  0.36  0.38  0.33  0.37  0.44
  8.43  8.11  9.16  8.73  8.76  7.49  7.28  6.07  6.68  5.67  7.67  8.47
 17.50 17.65 27.58 25.25 41.50 29.68 50.66 41.43 30.54 18.35 26.95 21.34
  6.37  9.76 13.74 18.10 21.29 23.34 22.63 20.28 17.22 13.11  8.76  6.45
 -2.61 -1.30  1.48  3.87  6.17 18.14 20.53 19.73 15.66  4.69  1.41 -1.77
  3.66  3.66  3.72  3.65  3.00  2.33  2.17  2.04  2.11  2.43  3.00  3.41
