 .Wgn file Subbasin: 35 STATION NAME:401636 4/24/2014 12:00:00 AM ArcSWAT 2012.10_0.14
  LATITUDE =  35.28 LONGITUDE = -84.75
  ELEV [m] = 220.10
  RAIN_YRS =  51.00
  9.38 11.89 16.95 22.46 26.38 30.13 31.86 31.53 28.17 22.56 16.33 10.99
 -1.28  0.13  4.23  8.75 13.44 18.14 20.51 20.18 16.53  9.33  4.05  0.20
  6.14  6.21  6.10  5.11  4.03  3.18  2.98  2.90  3.91  4.40  5.33  5.66
  6.06  5.55  5.24  4.95  4.13  2.97  2.18  2.31  3.91  5.09  5.34  5.66
 124.4 118.6 147.1 107.7 100.6  99.5 125.2  87.9 102.9  79.5 116.8 126.9
 13.64 14.40 18.58 13.72 12.41 12.04 14.72 12.03 19.29 14.99 14.27 14.82
  2.03  1.73  3.30  2.20  2.39  2.34  2.57  2.16  3.31  1.84  1.76  2.45
  0.25  0.25  0.28  0.22  0.24  0.24  0.26  0.20  0.17  0.14  0.23  0.25
  0.42  0.42  0.41  0.40  0.41  0.44  0.44  0.41  0.39  0.40  0.40  0.42
  9.35  8.39  9.86  8.22  8.86  9.04  9.88  7.82  6.67  5.76  8.24  9.18
 14.34 12.97 19.99 26.72 34.07 30.89 45.11 27.73 26.99 15.95 17.12 15.77
  6.79 10.06 13.91 18.86 21.70 23.17 22.17 20.11 17.43 13.37  9.01  6.83
 -1.96 -0.96  1.14  3.50 13.92 18.27 20.30 20.18 16.77  4.77  1.60 -0.77
  2.64  2.74  2.95  2.76  2.33  2.01  1.91  1.79  1.88  1.86  2.16  2.40
