 .Sol file Watershed HRU:2047 Subbasin:30 HRU:67 Luse:SHRB Soil: TN054 Slope: 2-5 4/9/2014 12:00:00 AM ArcSWAT 2012.10_0.14
 Soil Name: BODINE
 Soil Hydrologic Group: B
 Maximum rooting depth(m) : 1828.80
 Porosity fraction from which anions are excluded: 0.500
 Crack volume potential of soil: 0.500
 Texture 1                : CR--SIL-CR--SICL-CR--SICL
 Depth                [mm]:      203.20      609.60     1828.80
 Bulk Density Moist [g/cc]:        1.45        1.50        1.50
 Ave. AW Incl. Rock Frag  :        0.14        0.13        0.09
 Ksat. (est.)      [mm/hr]:        4.90        0.87        0.47
 Organic Carbon [weight %]:        0.87        0.15        0.15
 Clay           [weight %]:       14.00       27.50       30.50
 Silt           [weight %]:       55.62       52.50       52.14
 Sand           [weight %]:       30.38       20.00       17.36
 Rock Fragments   [vol. %]:       30.00       30.00       55.75
 Soil Albedo (Moist)      :        0.04        0.17        0.17
 Erosion K                :        0.28        0.24        0.24
 Salinity (EC, Form 5)    :        0.00        0.00        0.00
 Soil pH                  :        0.00        0.00        0.00
 Soil CACO3               :        0.00        0.00        0.00
                              
