 .Wgn file Subbasin: 30 STATION NAME:314448 4/24/2014 12:00:00 AM ArcSWAT 2012.10_0.14
  LATITUDE =  35.40 LONGITUDE = -83.28
  ELEV [m] = 586.10
  RAIN_YRS =  51.00
  8.24 10.79 16.05 21.33 25.44 29.20 30.76 30.59 27.47 21.60 15.38 10.06
 -1.79 -0.30  3.83  8.54 13.21 17.74 19.99 19.59 15.94  8.96  3.75 -0.23
  6.30  6.34  6.30  5.23  4.10  3.06  3.36  2.83  3.86  4.58  5.75  5.93
  6.18  5.68  5.47  5.05  4.18  2.86  2.52  2.23  3.93  4.98  5.26  5.56
 108.1 102.9 127.7 100.3 104.4 101.0 122.4  80.7  79.0  66.3  96.3 114.8
 10.85 11.39 14.62 12.04 12.57 11.75 13.92 11.51 12.93 10.88 10.72 13.67
  2.04  1.89  3.59  2.78  2.36  2.17  2.37  2.49  2.23  1.77  1.72  2.89
  0.26  0.28  0.30  0.25  0.26  0.25  0.26  0.21  0.17  0.17  0.23  0.25
  0.42  0.42  0.43  0.41  0.41  0.43  0.40  0.38  0.39  0.35  0.39  0.42
  9.71  9.16 10.78  9.10  9.45  9.24  9.54  7.69  6.53  6.29  8.30  9.39
  9.15 10.50 16.47 28.63 33.05 29.31 36.44 25.25 29.64 14.11 18.42 13.54
  7.37 10.60 14.29 19.23 22.00 23.38 22.37 20.28 17.43 13.49  9.43  7.37
 -2.34 -1.31  0.86  3.45  5.20 18.27 20.30 20.18 16.77  4.54  1.34 -1.04
  3.02  3.10  3.30  3.18  2.80  2.51  2.44  2.18  2.25  2.23  2.57  2.81
