 .Sol file Watershed HRU:1470 Subbasin:30 HRU:20 Luse:UTRN Soil: NC095 Slope: 0-2 4/24/2014 12:00:00 AM ArcSWAT 2012.10_0.14
 Soil Name: EVARD
 Soil Hydrologic Group: B
 Maximum rooting depth(m) : 1828.80
 Porosity fraction from which anions are excluded: 0.500
 Crack volume potential of soil: 0.500
 Texture 1                : SL-SCL-L-SL
 Depth                [mm]:      127.00      736.60      939.80     1828.80
 Bulk Density Moist [g/cc]:        1.45        1.40        1.30        1.30
 Ave. AW Incl. Rock Frag  :        0.23        0.21        0.25        0.15
 Ksat. (est.)      [mm/hr]:        6.38        1.09        0.77        3.19
 Organic Carbon [weight %]:        1.74        0.15        0.15        0.15
 Clay           [weight %]:       12.50       26.50       21.00       12.50
 Silt           [weight %]:       19.65       17.66       37.35       19.65
 Sand           [weight %]:       67.85       55.84       41.65       67.85
 Rock Fragments   [vol. %]:        8.61        4.64        7.79       11.77
 Soil Albedo (Moist)      :        0.01        0.17        0.17        0.17
 Erosion K                :        0.24        0.24        0.24        0.24
 Salinity (EC, Form 5)    :        0.00        0.00        0.00        0.00
 Soil pH                  :        0.00        0.00        0.00        0.00
 Soil CACO3               :        0.00        0.00        0.00        0.00
                              
