 .Sol file Watershed HRU:1974 Subbasin:39 HRU:38 Luse:FRSE Soil: NC006 Slope: 5-9999 4/24/2014 12:00:00 AM ArcSWAT 2012.10_0.14
 Soil Name: CLIFTON
 Soil Hydrologic Group: B
 Maximum rooting depth(m) : 1651.00
 Porosity fraction from which anions are excluded: 0.500
 Crack volume potential of soil: 0.500
 Texture 1                : L-SCL-C-L
 Depth                [mm]:      127.00      254.00     1143.00     1651.00
 Bulk Density Moist [g/cc]:        1.48        1.40        1.40        1.27
 Ave. AW Incl. Rock Frag  :        0.32        0.25        0.32        0.27
 Ksat. (est.)      [mm/hr]:        3.41        3.12        0.33        2.37
 Organic Carbon [weight %]:        1.16        0.29        0.15        0.15
 Clay           [weight %]:       18.50       27.50       45.00       16.00
 Silt           [weight %]:       38.54       17.42       28.90       40.19
 Sand           [weight %]:       42.96       55.08       26.10       43.81
 Rock Fragments   [vol. %]:        7.21        5.44        5.44        8.83
 Soil Albedo (Moist)      :        0.02        0.13        0.17        0.17
 Erosion K                :        0.17        0.17        0.17        0.17
 Salinity (EC, Form 5)    :        0.00        0.00        0.00        0.00
 Soil pH                  :        0.00        0.00        0.00        0.00
 Soil CACO3               :        0.00        0.00        0.00        0.00
                              
