 .Sol file Watershed HRU:2043 Subbasin:30 HRU:63 Luse:SHRB Soil: TN029 Slope: 0-2 4/9/2014 12:00:00 AM ArcSWAT 2012.10_0.14
 Soil Name: ENNIS
 Soil Hydrologic Group: B
 Maximum rooting depth(m) : 1524.00
 Porosity fraction from which anions are excluded: 0.500
 Crack volume potential of soil: 0.500
 Texture 1                : CR--SIL-CR--L
 Depth                [mm]:      254.00     1524.00
 Bulk Density Moist [g/cc]:        1.38        1.42
 Ave. AW Incl. Rock Frag  :        0.16        0.12
 Ksat. (est.)      [mm/hr]:        3.20        3.10
 Organic Carbon [weight %]:        1.16        0.39
 Clay           [weight %]:       18.50       25.00
 Silt           [weight %]:       54.40       36.48
 Sand           [weight %]:       27.10       38.52
 Rock Fragments   [vol. %]:       21.23       25.63
 Soil Albedo (Moist)      :        0.02        0.11
 Erosion K                :        0.28        0.28
 Salinity (EC, Form 5)    :        0.00        0.00
 Soil pH                  :        0.00        0.00
 Soil CACO3               :        0.00        0.00
                              
