 .Wgn file Subbasin: 34 STATION NAME:405592 4/24/2014 12:00:00 AM ArcSWAT 2012.10_0.14
  LATITUDE =  35.48 LONGITUDE = -86.08
  ELEV [m] = 317.00
  RAIN_YRS =  51.00
  7.25  9.07 14.11 21.36 25.59 29.19 30.64 30.35 26.91 18.25 14.81  8.44
 -3.70 -2.38  1.88  8.57 12.66 17.13 19.37 18.52 14.41  5.49  2.44 -2.29
  7.30  6.43  6.93  5.32  4.45  3.22  2.60  3.20  4.03 12.61  5.69  6.46
  7.38  6.19  6.03  5.45  4.40  3.17  2.79  3.12  4.70  8.14  5.85  6.38
  76.1  97.9 123.7 117.2 103.9  94.2  94.7  92.0  83.7 570.9  68.6  99.8
 10.17 11.27 15.74 11.67 11.84 16.80  9.16 16.30 13.41 83.97  8.42 12.46
  3.67  3.02  2.39  1.41  1.94  3.42  1.26  3.29  1.62  0.32  2.23  2.26
  0.22  0.28  0.25  0.25  0.19  0.23  0.27  0.17  0.15  0.12  0.23  0.26
  0.41  0.40  0.41  0.41  0.48  0.38  0.33  0.33  0.42  0.57  0.35  0.31
  8.45  8.82  9.18  9.00  8.30  8.10  8.80  6.40  6.20  6.80  7.90  8.60
 16.54 14.92 22.16 23.49 39.01 27.75 46.32 34.75 28.93 18.01 18.08 16.53
  7.04 10.22 13.87 18.69 21.66 23.13 22.42 20.28 17.39 13.53  9.34  6.87
 -1.52 -0.33  1.48  3.63  6.17 18.81 20.84 20.18 16.46  4.70  1.72 -0.50
  3.87  3.98  4.16  3.93  3.49  2.81  2.44  2.39  2.88  3.00  3.42  3.67
