 .Wgn file Subbasin: 32 STATION NAME:318492 4/24/2014 12:00:00 AM ArcSWAT 2012.10_0.14
  LATITUDE =  35.45 LONGITUDE = -83.93
  ELEV [m] = 338.30
  RAIN_YRS =  51.00
  9.63 11.79 16.89 22.15 25.60 28.84 30.34 29.98 26.88 21.77 16.36 11.28
 -1.94 -0.79  2.89  6.83 11.04 15.01 16.79 16.61 14.03  7.90  3.20 -0.24
  6.08  6.13  6.09  5.17  3.88  2.94  2.76  2.70  3.63  4.29  5.24  5.76
  6.14  5.75  5.67  5.06  4.17  2.97  2.21  2.27  3.70  5.17  5.45  5.81
 129.4 123.4 146.7 109.3 127.8 130.8 147.4 117.7  96.7  75.4 108.6 123.4
 12.73 13.08 16.50 12.53 13.51 12.18 13.82 13.38 13.36 12.40 12.43 12.82
  1.86  2.03  3.45  2.73  2.59  1.92  2.12  2.33  2.20  1.86  1.79  2.17
  0.28  0.30  0.30  0.25  0.27  0.28  0.29  0.23  0.19  0.17  0.24  0.27
  0.45  0.45  0.47  0.45  0.48  0.50  0.48  0.48  0.45  0.37  0.42  0.46
 10.47  9.93 11.20  9.44 10.64 10.59 11.12  9.56  7.80  6.53  8.82 10.30
 11.34 11.81 17.85 26.93 33.74 29.71 39.73 26.47 28.12 15.33 17.87 14.86
  6.79 10.06 13.91 18.86 21.70 23.17 22.17 20.11 17.43 13.37  9.01  6.83
 -2.34 -1.31  0.86  3.45  5.20 18.27 20.30 20.18 16.77  4.54  1.34 -1.04
  3.02  3.10  3.30  3.18  2.80  2.51  2.44  2.18  2.25  2.23  2.57  2.81
