 .Sol file Watershed HRU:1602 Subbasin:33 HRU:26 Luse:FRSD Soil: TN066 Slope: 5-9999 4/24/2014 12:00:00 AM ArcSWAT 2012.10_0.14
 Soil Name: DELLROSE
 Soil Hydrologic Group: B
 Maximum rooting depth(m) : 1778.00
 Porosity fraction from which anions are excluded: 0.500
 Crack volume potential of soil: 0.500
 Texture 1                : CR--SIL-CR--SICL-C
 Depth                [mm]:      203.20     1371.60     1778.00
 Bulk Density Moist [g/cc]:        1.30        1.30        1.40
 Ave. AW Incl. Rock Frag  :        0.28        0.27        0.21
 Ksat. (est.)      [mm/hr]:       69.26       25.90       16.86
 Organic Carbon [weight %]:        1.16        0.39        0.13
 Clay           [weight %]:       21.00       27.50       47.50
 Silt           [weight %]:       52.74       52.50       29.16
 Sand           [weight %]:       26.26       20.00       23.34
 Rock Fragments   [vol. %]:       19.82       19.42        8.22
 Soil Albedo (Moist)      :        0.02        0.11        0.18
 Erosion K                :        0.24        0.24        0.24
 Salinity (EC, Form 5)    :        0.00        0.00        0.00
 Soil pH                  :        0.00        0.00        0.00
 Soil CACO3               :        0.00        0.00        0.00
                              
