 .Sol file Watershed HRU:2122 Subbasin:31 HRU:58 Luse:PAST Soil: KY102 Slope: 5-9999 4/9/2014 12:00:00 AM ArcSWAT 2012.10_0.14
 Soil Name: SAFFELL
 Soil Hydrologic Group: B
 Maximum rooting depth(m) : 1828.80
 Porosity fraction from which anions are excluded: 0.500
 Crack volume potential of soil: 0.500
 Texture 1                : FSL-GR--SCL-GRV-SCL-GR--SL
 Depth                [mm]:      203.20      355.60     1193.80     1828.80
 Bulk Density Moist [g/cc]:        1.45        1.48        1.48        1.48
 Ave. AW Incl. Rock Frag  :        0.11        0.08        0.06        0.05
 Ksat. (est.)      [mm/hr]:       87.00       22.00       12.00       20.00
 Organic Carbon [weight %]:        0.87        0.29        0.15        0.15
 Clay           [weight %]:       12.50       22.50       23.50       17.50
 Silt           [weight %]:       20.24       18.02       17.81       15.28
 Sand           [weight %]:       67.26       59.48       58.69       67.22
 Rock Fragments   [vol. %]:        7.87       30.00       47.59       47.33
 Soil Albedo (Moist)      :        0.04        0.13        0.17        0.17
 Erosion K                :        0.24        0.28        0.28        0.17
 Salinity (EC, Form 5)    :        0.00        0.00        0.00        0.00
 Soil pH                  :        0.00        0.00        0.00        0.00
 Soil CACO3               :        0.00        0.00        0.00        0.00
                              
