 .Sol file Watershed HRU:2129 Subbasin:31 HRU:65 Luse:PAST Soil: TN021 Slope: 0-2 4/9/2014 12:00:00 AM ArcSWAT 2012.10_0.14
 Soil Name: DULAC
 Soil Hydrologic Group: C
 Maximum rooting depth(m) : 1828.80
 Porosity fraction from which anions are excluded: 0.500
 Crack volume potential of soil: 0.500
 Texture 1                : SIL-SICL-SICL-SIC
 Depth                [mm]:      152.40      584.20      939.80     1828.80
 Bulk Density Moist [g/cc]:        1.30        1.50        1.70        1.60
 Ave. AW Incl. Rock Frag  :        0.21        0.21        0.21        0.13
 Ksat. (est.)      [mm/hr]:        3.10        0.40        0.31        0.15
 Organic Carbon [weight %]:        0.73        0.24        0.08        0.03
 Clay           [weight %]:       12.00       27.50       27.50       47.50
 Silt           [weight %]:       67.25       65.34       65.34       46.98
 Sand           [weight %]:       20.75        7.16        7.16        5.52
 Rock Fragments   [vol. %]:        0.00        0.00        1.62        3.08
 Soil Albedo (Moist)      :        0.06        0.14        0.20        0.22
 Erosion K                :        0.49        0.43        0.43        0.20
 Salinity (EC, Form 5)    :        0.00        0.00        0.00        0.00
 Soil pH                  :        0.00        0.00        0.00        0.00
 Soil CACO3               :        0.00        0.00        0.00        0.00
                              
