 .Wgn file Subbasin: 44 STATION NAME:91024 4/24/2014 12:00:00 AM ArcSWAT 2012.10_0.14
  LATITUDE =  34.87 LONGITUDE = -84.32
  ELEV [m] = 560.80
  RAIN_YRS =  51.00
  9.29 11.68 16.19 21.45 25.23 28.57 30.34 29.96 27.02 22.15 16.40 11.26
 -3.22 -2.01  1.65  5.73 10.10 14.75 17.26 16.86 13.28  6.41  1.95 -1.67
  6.12  6.11  5.95  5.06  3.81  3.07  2.85  2.68  3.66  4.34  5.24  5.75
  6.91  6.18  5.90  5.37  4.65  3.28  2.45  2.48  4.29  5.47  5.94  6.62
 145.2 134.8 159.9 125.0 126.7 126.5 131.7 118.5 113.7  94.7 125.2 133.7
 14.68 15.75 16.04 13.91 14.73 12.86 12.01 13.54 16.05 20.03 13.04 13.44
  2.42  2.69  2.33  2.14  2.68  2.21  3.11  3.84  3.10  4.25  1.54  2.21
  0.27  0.26  0.28  0.25  0.26  0.27  0.31  0.23  0.20  0.15  0.23  0.26
  0.47  0.47  0.45  0.44  0.46  0.51  0.53  0.54  0.52  0.43  0.48  0.45
 10.29  9.26 10.50  9.24  9.93 10.78 12.30 10.40  8.89  6.52  9.29  9.92
 15.61 16.81 14.27 22.77 31.84 32.49 40.90 26.28 25.57 20.29 20.42 15.48
  7.71 10.89 14.71 19.53 22.00 23.34 22.21 20.57 17.51 13.83  9.85  7.67
 -2.34 -1.31  0.86  3.45 13.92 18.27 20.30 20.18 16.77  4.54  1.34 -1.04
  3.02  3.10  3.30  3.18  2.80  2.51  2.44  2.18  2.25  2.23  2.57  2.81
