 .Wgn file Subbasin: 42 STATION NAME:402360 4/24/2014 12:00:00 AM ArcSWAT 2012.10_0.14
  LATITUDE =  35.47 LONGITUDE = -85.00
  ELEV [m] = 263.70
  RAIN_YRS =  51.00
  8.45 11.23 16.59 22.14 25.99 29.76 31.18 30.96 27.69 21.99 15.48 10.00
 -2.14 -0.77  3.24  7.63 12.18 16.58 18.73 18.34 14.99  8.27  3.39 -0.64
  5.81  6.05  5.97  5.05  3.74  2.95  2.81  2.73  3.72  4.31  5.26  5.45
  6.37  5.87  5.62  5.07  4.23  3.04  2.33  2.41  4.02  5.21  5.56  5.88
 124.7 118.8 151.5 113.9 127.5 101.6 122.2  96.8 112.9  81.8 119.4 138.0
 12.83 14.44 17.29 14.35 16.38 12.63 13.11 15.18 19.74 15.96 14.19 17.32
  1.75  2.29  3.04  2.41  3.88  2.40  2.20  2.87  3.71  2.62  1.45  3.24
  0.25  0.25  0.28  0.23  0.25  0.25  0.27  0.21  0.18  0.16  0.22  0.24
  0.45  0.44  0.44  0.42  0.44  0.42  0.49  0.43  0.46  0.38  0.40  0.43
  9.57  8.62 10.24  8.52  9.64  8.98 10.72  8.28  7.52  6.36  8.06  9.27
 13.53 13.05 19.27 26.03 35.41 30.47 45.38 28.67 26.20 15.03 16.64 15.24
  6.75 10.01 13.87 18.77 21.66 23.21 22.21 20.07 17.39 13.32  8.97  6.79
 -1.96 -0.96  1.14  3.50  6.17 18.81 20.84 20.18 16.46  4.77  1.60 -0.77
  2.64  2.74  2.95  2.76  2.33  2.01  1.91  1.79  1.88  1.86  2.16  2.40
