 .Wgn file Subbasin: 47 STATION NAME:93427 4/24/2014 12:00:00 AM ArcSWAT 2012.10_0.14
  LATITUDE =  34.93 LONGITUDE = -85.35
  ELEV [m] = 217.00
  RAIN_YRS =  51.00
  9.73 12.31 17.58 23.53 27.11 30.49 32.03 31.70 28.69 23.19 17.12 11.87
 -2.03 -1.21  3.30  8.02 12.56 17.07 19.57 19.22 16.12  8.14  2.99 -0.48
  6.33  6.13  6.25  4.76  3.94  3.21  2.91  2.58  4.05  4.37  5.46  5.62
  6.25  5.41  5.57  5.19  4.15  3.04  2.18  2.18  3.92  5.29  5.72  5.96
 125.3 107.6 182.9 134.1 106.3  90.3 108.4  92.7 113.3  72.2  92.5 126.2
 12.49 11.98 21.60 18.96 16.86 12.15 13.68 14.45 21.83 17.38 11.31 14.65
  2.00  1.36  2.12  2.11  3.09  2.41  2.75  3.25  3.05  2.84  1.30  2.28
  0.24  0.23  0.29  0.19  0.22  0.21  0.26  0.19  0.17  0.13  0.20  0.23
  0.44  0.42  0.39  0.45  0.40  0.42  0.42  0.41  0.39  0.43  0.39  0.41
  9.43  8.01  9.95  7.65  8.20  7.95  9.44  7.48  6.48  5.57  7.55  8.80
 16.90 13.88 22.17 26.79 34.59 30.39 46.44 29.87 29.85 16.85 17.43 15.85
  7.75 10.89 14.50 19.44 22.17 23.30 22.42 20.66 17.72 13.95  9.89  7.58
 -1.96 -0.96  1.14  3.50 13.92 18.27 20.30 20.18 16.77  4.77  1.60 -0.77
  2.64  2.74  2.95  2.76  2.33  2.01  1.91  1.79  1.88  1.86  2.16  2.40
