 .Sol file Watershed HRU:2580 Subbasin:49 HRU:62 Luse:SHRB Soil: TN043 Slope: 0-2 4/24/2014 12:00:00 AM ArcSWAT 2012.10_0.14
 Soil Name: LUVERNE
 Soil Hydrologic Group: C
 Maximum rooting depth(m) : 2032.00
 Porosity fraction from which anions are excluded: 0.500
 Crack volume potential of soil: 0.500
 Texture 1                : FSL-SC-SCL-SCL
 Depth                [mm]:      177.80      762.00     1016.00     2032.00
 Bulk Density Moist [g/cc]:        1.50        1.40        1.50        1.50
 Ave. AW Incl. Rock Frag  :        0.38        0.38        0.38        0.35
 Ksat. (est.)      [mm/hr]:        6.17        0.28        0.78        1.22
 Organic Carbon [weight %]:        0.44        0.15        0.05        0.02
 Clay           [weight %]:       13.50       42.50       30.00       22.50
 Silt           [weight %]:       20.01        7.68       14.56       18.02
 Sand           [weight %]:       66.49       49.82       55.44       59.48
 Rock Fragments   [vol. %]:        6.10        4.04        5.80        5.80
 Soil Albedo (Moist)      :        0.10        0.17        0.21        0.22
 Erosion K                :        0.24        0.28        0.28        0.28
 Salinity (EC, Form 5)    :        0.00        0.00        0.00        0.00
 Soil pH                  :        0.00        0.00        0.00        0.00
 Soil CACO3               :        0.00        0.00        0.00        0.00
                              
