 .Wgn file Subbasin: 43 STATION NAME:91906 4/24/2014 12:00:00 AM ArcSWAT 2012.10_0.14
  LATITUDE =  34.88 LONGITUDE = -85.27
  ELEV [m] = 225.60
  RAIN_YRS =  51.00
  8.93 11.43 16.54 21.91 25.76 29.57 31.23 30.95 27.62 22.05 16.05 10.63
 -1.88 -0.49  3.58  8.07 12.79 17.40 19.66 19.36 15.87  8.80  3.65 -0.36
  5.78  5.82  5.69  4.82  3.73  3.05  2.77  2.69  3.69  4.13  5.07  5.32
  5.94  5.37  5.11  4.80  4.00  2.85  2.05  2.13  3.82  4.98  5.24  5.53
 122.1 118.1 141.2  95.5 104.2  86.3 106.1  80.6 105.8  83.1 108.3 121.3
 13.67 16.05 18.43 12.34 15.53 11.34 14.63 12.27 18.39 15.72 15.84 14.91
  2.00  2.37  2.49  1.87  2.41  1.86  2.38  2.26  3.30  2.20  2.09  2.33
  0.22  0.23  0.23  0.20  0.19  0.19  0.21  0.18  0.15  0.13  0.20  0.22
  0.46  0.44  0.43  0.41  0.42  0.45  0.40  0.39  0.46  0.42  0.40  0.43
  9.04  8.16  8.88  7.62  7.72  7.62  8.16  6.98  6.58  5.66  7.41  8.78
 18.34 14.97 23.47 27.67 33.92 31.48 48.76 31.12 31.03 17.41 18.62 16.59
  7.75 10.89 14.50 19.44 22.17 23.30 22.42 20.66 17.72 13.95  9.89  7.58
 -1.96 -0.96  1.14  3.50 13.92 18.27 20.30 20.18 16.77  4.77  1.60 -0.77
  2.64  2.74  2.95  2.76  2.33  2.01  1.91  1.79  1.88  1.86  2.16  2.40
