 .Wgn file Subbasin: 41 STATION NAME:409785 4/24/2014 12:00:00 AM ArcSWAT 2012.10_0.14
  LATITUDE =  35.23 LONGITUDE = -86.10
  ELEV [m] = 292.90
  RAIN_YRS =  51.00
  9.67 12.31 17.33 22.75 26.73 30.43 31.94 31.82 28.64 23.08 16.79 11.47
 -0.83  0.88  5.00  9.75 14.40 18.75 20.77 20.14 16.64  9.90  4.72  0.76
  6.50  6.46  6.19  5.03  3.98  3.36  2.79  2.89  3.95  4.58  5.55  6.13
  6.40  5.81  5.56  5.01  4.06  2.78  1.95  2.26  4.11  5.16  5.62  6.05
 126.3 119.8 157.0 116.7 124.6 105.3 114.1  85.3  99.4  81.9 117.3 142.6
 14.72 16.44 19.60 15.23 17.47 15.40 15.50 15.25 16.74 17.28 15.45 20.18
  2.49  2.36  2.56  2.19  2.58  2.54  2.97  2.70  1.84  2.40  1.88  4.16
  0.25  0.26  0.26  0.24  0.22  0.22  0.23  0.19  0.17  0.14  0.23  0.24
  0.40  0.38  0.39  0.39  0.39  0.40  0.40  0.35  0.40  0.34  0.37  0.40
  9.10  8.33  9.24  8.35  8.27  7.95  8.57  6.92  6.47  5.53  8.06  8.88
 17.35 14.97 23.21 24.41 38.31 27.73 45.76 33.97 29.68 17.36 18.09 16.71
  7.04 10.22 13.87 18.69 21.66 23.13 22.42 20.28 17.39 13.53  9.34  6.87
 -1.52 -0.33  1.48  3.63  6.17 18.81 20.84 20.18 16.46  4.70  1.72 -0.50
  3.87  3.98  4.16  3.93  3.49  2.81  2.44  2.39  2.88  3.00  3.42  3.67
