 .Wgn file Subbasin: 49 STATION NAME:408108 4/24/2014 12:00:00 AM ArcSWAT 2012.10_0.14
  LATITUDE =  35.15 LONGITUDE = -88.32
  ELEV [m] = 128.00
  RAIN_YRS =  51.00
 10.01 13.12 18.39 23.87 27.33 31.15 32.91 32.64 29.36 23.90 17.43 11.77
 -1.82 -0.15  4.33  9.04 13.43 17.78 19.73 19.01 15.47  8.73  4.31  0.03
  6.58  6.61  6.23  4.84  3.65  3.00  2.79  3.05  3.93  4.58  5.55  6.13
  6.79  6.19  6.07  5.53  4.40  3.27  2.52  2.80  4.41  5.56  6.00  6.39
 117.7 120.4 146.4 134.1 148.7 105.0 116.0  88.0 108.2  90.1 131.9 148.3
 15.38 15.35 17.10 16.00 20.23 13.91 14.73 16.51 22.15 16.17 19.66 18.47
  2.48  2.41  2.28  1.94  3.79  1.65  2.47  4.51  5.36  2.16  2.79  2.32
  0.23  0.26  0.26  0.25  0.24  0.22  0.23  0.18  0.17  0.16  0.22  0.24
  0.42  0.40  0.45  0.42  0.44  0.40  0.39  0.37  0.42  0.36  0.40  0.43
  8.82  8.36  9.98  8.94  9.36  8.04  8.62  6.96  6.82  6.26  8.12  9.20
 18.72 18.05 27.58 25.09 40.62 25.80 46.70 42.63 30.77 18.97 29.34 26.10
  6.37  9.76 13.74 18.10 21.29 23.34 22.63 20.28 17.22 13.11  8.76  6.45
 -2.61 -1.30  1.48  3.87  6.17 18.14 20.53 19.73 15.66  4.69  1.41 -1.77
  3.66  3.66  3.72  3.65  3.00  2.33  2.17  2.04  2.11  2.43  3.00  3.41
