 .Sol file Watershed HRU:2574 Subbasin:49 HRU:56 Luse:SHRB Soil: TN024 Slope: 5-9999 4/24/2014 12:00:00 AM ArcSWAT 2012.10_0.14
 Soil Name: IUKA
 Soil Hydrologic Group: C
 Maximum rooting depth(m) : 1524.00
 Porosity fraction from which anions are excluded: 0.500
 Crack volume potential of soil: 0.500
 Texture 1                : FSL-FSL-SL
 Depth                [mm]:      330.20      558.80     1524.00
 Bulk Density Moist [g/cc]:        0.00        0.00        0.00
 Ave. AW Incl. Rock Frag  :        0.38        0.32        0.32
 Ksat. (est.)      [mm/hr]:        6.17        3.70        4.74
 Organic Carbon [weight %]:        0.73        0.24        0.08
 Clay           [weight %]:       10.50       13.00       10.00
 Silt           [weight %]:       26.30       20.13       23.44
 Sand           [weight %]:       63.20       66.87       66.56
 Rock Fragments   [vol. %]:        2.70        4.11        2.70
 Soil Albedo (Moist)      :        0.06        0.14        0.20
 Erosion K                :        0.24        0.28        0.20
 Salinity (EC, Form 5)    :        0.00        0.00        0.00
 Soil pH                  :        0.00        0.00        0.00
 Soil CACO3               :        0.00        0.00        0.00
                              
