 .Sol file Watershed HRU:2728 Subbasin:52 HRU:97 Luse:PAST Soil: AL001 Slope: 2-5 4/18/2014 12:00:00 AM ArcSWAT 2012.10_0.14
 Soil Name: DICKSON
 Soil Hydrologic Group: C
 Maximum rooting depth(m) : 1651.00
 Porosity fraction from which anions are excluded: 0.500
 Crack volume potential of soil: 0.500
 Texture 1                : SIL-SICL-SICL-CR-SICL
 Depth                [mm]:      177.80      635.00     1143.00     1651.00
 Bulk Density Moist [g/cc]:        1.40        1.45        1.65        1.45
 Ave. AW Incl. Rock Frag  :        0.21        0.19        0.14        0.16
 Ksat. (est.)      [mm/hr]:        1.40        0.83        0.18        0.62
 Organic Carbon [weight %]:        0.73        0.15        0.15        0.15
 Clay           [weight %]:       20.50       27.50       27.50       39.50
 Silt           [weight %]:       68.14       65.34       65.34       53.27
 Sand           [weight %]:       11.36        7.16        7.16        7.23
 Rock Fragments   [vol. %]:        1.34        1.38        3.17       17.55
 Soil Albedo (Moist)      :        0.06        0.17        0.17        0.17
 Erosion K                :        0.43        0.43        0.43        0.28
 Salinity (EC, Form 5)    :        0.00        0.00        0.00        0.00
 Soil pH                  :        0.00        0.00        0.00        0.00
 Soil CACO3               :        0.00        0.00        0.00        0.00
                              
