 .Sol file Watershed HRU:2906 Subbasin:54 HRU:10 Luse:FRST Soil: MS126 Slope: 0-2 4/24/2014 12:00:00 AM ArcSWAT 2012.10_0.14
 Soil Name: KIRKVILLE
 Soil Hydrologic Group: C
 Maximum rooting depth(m) : 1828.80
 Porosity fraction from which anions are excluded: 0.500
 Crack volume potential of soil: 0.500
 Texture 1                : L-L
 Depth                [mm]:      228.60     1828.80
 Bulk Density Moist [g/cc]:        1.40        1.45
 Ave. AW Incl. Rock Frag  :        0.28        0.23
 Ksat. (est.)      [mm/hr]:       27.75       59.47
 Organic Carbon [weight %]:        0.73        0.24
 Clay           [weight %]:       20.50       14.00
 Silt           [weight %]:       37.59       41.14
 Sand           [weight %]:       41.91       44.86
 Rock Fragments   [vol. %]:        0.00        0.00
 Soil Albedo (Moist)      :        0.06        0.14
 Erosion K                :        0.37        0.28
 Salinity (EC, Form 5)    :        0.00        0.00
 Soil pH                  :        0.00        0.00
 Soil CACO3               :        0.00        0.00
                              
