 .Wgn file Subbasin: 55 STATION NAME:17310 4/24/2014 12:00:00 AM ArcSWAT 2012.10_0.14
  LATITUDE =  34.68 LONGITUDE = -86.02
  ELEV [m] = 200.90
  RAIN_YRS =  51.00
  9.67 12.31 17.33 22.75 26.73 30.43 31.94 31.82 28.64 23.08 16.79 11.47
 -0.83  0.88  5.00  9.75 14.40 18.75 20.77 20.14 16.64  9.90  4.72  0.76
  6.50  6.46  6.19  5.03  3.98  3.36  2.79  2.89  3.95  4.58  5.55  6.13
  6.40  5.81  5.56  5.01  4.06  2.78  1.95  2.26  4.11  5.16  5.62  6.05
 126.3 119.8 157.0 116.7 124.6 105.3 114.1  85.3  99.4  81.9 117.3 142.6
 14.72 16.44 19.60 15.23 17.47 15.40 15.50 15.25 16.74 17.28 15.45 20.18
  2.49  2.36  2.56  2.19  2.58  2.54  2.97  2.70  1.84  2.40  1.88  4.16
  0.25  0.26  0.26  0.24  0.22  0.22  0.23  0.19  0.17  0.14  0.23  0.24
  0.40  0.38  0.39  0.39  0.39  0.40  0.40  0.35  0.40  0.34  0.37  0.40
  9.10  8.33  9.24  8.35  8.27  7.95  8.57  6.92  6.47  5.53  8.06  8.88
 18.42 15.13 24.71 25.43 37.11 27.65 45.01 33.10 30.61 16.86 18.79 17.51
  7.50 10.60 14.08 19.11 22.00 23.17 22.50 20.53 17.72 13.87  9.68  7.25
 -1.52 -0.33  1.48  3.63 14.54 18.81 20.84 20.18 16.46  4.70  1.72 -0.50
  3.87  3.98  4.16  3.93  3.49  2.81  2.44  2.39  2.88  3.00  3.42  3.67
