 .Sol file Watershed HRU:2769 Subbasin:52 HRU:2 Luse:CORN Soil: TN084 Slope: 5-9999 4/24/2014 12:00:00 AM ArcSWAT 2012.10_0.14
 Soil Name: MAURY
 Soil Hydrologic Group: B
 Maximum rooting depth(m) : 1905.00
 Porosity fraction from which anions are excluded: 0.500
 Crack volume potential of soil: 0.500
 Texture 1                : SIL-SICL-SIC-SIC
 Depth                [mm]:      406.40      736.60     1066.80     1905.00
 Bulk Density Moist [g/cc]:        1.30        1.42        1.50        1.50
 Ave. AW Incl. Rock Frag  :        0.19        0.18        0.13        0.12
 Ksat. (est.)      [mm/hr]:       31.81        3.18        1.47        1.31
 Organic Carbon [weight %]:        2.03        0.68        0.23        0.08
 Clay           [weight %]:       19.50       37.50       47.50       47.50
 Silt           [weight %]:       53.74       55.03       46.98       46.98
 Sand           [weight %]:       26.76        7.47        5.52        5.52
 Rock Fragments   [vol. %]:        1.24        1.36        2.89        2.89
 Soil Albedo (Moist)      :        0.01        0.06        0.15        0.20
 Erosion K                :        0.32        0.28        0.28        0.28
 Salinity (EC, Form 5)    :        0.00        0.00        0.00        0.00
 Soil pH                  :        0.00        0.00        0.00        0.00
 Soil CACO3               :        0.00        0.00        0.00        0.00
                              
