 .Sol file Watershed HRU:2731 Subbasin:52 HRU:100 Luse:PAST Soil: AL003 Slope: 0-2 4/18/2014 12:00:00 AM ArcSWAT 2012.10_0.14
 Soil Name: DEWEY
 Soil Hydrologic Group: B
 Maximum rooting depth(m) : 1828.80
 Porosity fraction from which anions are excluded: 0.500
 Crack volume potential of soil: 0.500
 Texture 1                : SIL-SIC-C-C
 Depth                [mm]:      152.40      635.00     1270.00     1828.80
 Bulk Density Moist [g/cc]:        1.42        1.50        1.50        1.50
 Ave. AW Incl. Rock Frag  :        0.18        0.17        0.16        0.14
 Ksat. (est.)      [mm/hr]:        4.70        1.70        2.30        2.00
 Organic Carbon [weight %]:        1.16        0.15        0.15        0.15
 Clay           [weight %]:       22.00       42.50       52.50       52.50
 Silt           [weight %]:       52.07       49.80       29.36       29.36
 Sand           [weight %]:       25.93        7.70       18.14       18.14
 Rock Fragments   [vol. %]:        5.64        5.92        8.04       13.77
 Soil Albedo (Moist)      :        0.02        0.17        0.17        0.17
 Erosion K                :        0.32        0.24        0.24        0.24
 Salinity (EC, Form 5)    :        0.00        0.00        0.00        0.00
 Soil pH                  :        0.00        0.00        0.00        0.00
 Soil CACO3               :        0.00        0.00        0.00        0.00
                              
