 .Wgn file Subbasin: 52 STATION NAME:407459 4/24/2014 12:00:00 AM ArcSWAT 2012.10_0.14
  LATITUDE =  35.18 LONGITUDE = -87.05
  ELEV [m] = 193.20
  RAIN_YRS =  51.00
  9.63 12.38 17.46 22.89 26.76 30.44 32.11 32.00 28.87 23.38 16.99 11.46
 -2.18 -0.68  3.55  8.25 12.68 17.15 19.46 18.73 14.98  8.02  3.29 -0.58
  6.40  6.47  6.13  4.90  3.74  2.97  2.59  2.78  3.79  4.51  5.47  5.97
  6.70  6.19  6.03  5.61  4.57  3.24  2.49  2.74  4.55  5.66  6.07  6.46
 119.2 122.0 152.5 115.7 125.0 110.8 114.7  94.7 110.1  90.4 119.0 143.0
 15.27 15.83 18.62 14.57 16.25 13.74 13.82 17.64 18.29 16.75 15.29 18.06
  3.47  2.89  2.64  2.18  2.16  1.91  1.91  3.69  2.06  3.40  2.21  2.52
  0.23  0.26  0.26  0.23  0.22  0.22  0.24  0.18  0.18  0.16  0.22  0.24
  0.45  0.42  0.42  0.40  0.41  0.46  0.41  0.38  0.40  0.37  0.41  0.43
  9.18  8.56  9.64  8.42  8.50  8.54  9.08  6.98  6.82  6.24  8.04  9.14
 18.31 16.15 25.65 24.12 39.83 26.37 45.94 36.81 30.08 17.87 23.61 19.69
  8.00 10.98 14.25 19.27 22.25 23.21 22.71 20.82 17.89 14.25 10.10  7.54
 -2.20 -0.04  1.59  3.15  6.17 18.81 20.84 20.18 16.46  4.34  1.55 -0.70
  3.24  3.23  3.45  3.32  2.77  2.08  1.80  1.73  2.19  2.22  2.64  3.03
