 .Wgn file Subbasin: 53 STATION NAME:14976 4/24/2014 12:00:00 AM ArcSWAT 2012.10_0.14
  LATITUDE =  34.70 LONGITUDE = -86.75
  ELEV [m] = 177.10
  RAIN_YRS =  51.00
  9.57 12.33 17.36 22.68 26.61 30.42 31.85 31.82 28.62 23.05 16.84 11.48
 -1.14  0.47  4.62  9.20 13.92 18.18 20.22 19.64 16.19  9.52  4.47  0.49
  6.21  6.14  5.87  4.72  3.65  2.94  2.57  2.68  3.76  4.35  5.30  5.79
  6.36  5.76  5.61  5.03  4.05  2.81  2.02  2.27  4.09  5.17  5.62  5.99
 130.5 122.5 160.4 120.8 128.6 108.1 126.2  87.3 107.5  87.3 121.3 146.6
 12.89 14.39 18.41 13.18 14.77 11.40 13.16 11.32 13.94 13.77 13.18 18.00
  2.42  2.38  3.72  2.17  3.13  2.95  3.33  2.69  2.26  2.27  1.90  4.02
  0.27  0.26  0.29  0.24  0.26  0.26  0.29  0.22  0.18  0.16  0.24  0.25
  0.51  0.49  0.50  0.53  0.51  0.56  0.55  0.51  0.56  0.48  0.49  0.52
 10.94  9.53 11.22 10.20 10.68 11.24 12.28  9.62  8.62  7.26  9.51 10.53
 20.71 16.80 29.62 27.33 36.81 27.51 45.48 34.97 32.24 17.76 22.09 20.19
  8.00 10.98 14.25 19.27 22.25 23.21 22.71 20.82 17.89 14.25 10.10  7.54
 -1.52 -0.33  1.48  3.63 14.54 18.81 20.84 20.18 16.46  4.70  1.72 -0.50
  3.87  3.98  4.16  3.93  3.49  2.81  2.44  2.39  2.88  3.00  3.42  3.67
