 .Sol file Watershed HRU:2708 Subbasin:52 HRU:77 Luse:FRSE Soil: AL032 Slope: 2-5 4/18/2014 12:00:00 AM ArcSWAT 2012.10_0.14
 Soil Name: SMITHDALE
 Soil Hydrologic Group: B
 Maximum rooting depth(m) : 2032.00
 Porosity fraction from which anions are excluded: 0.500
 Crack volume potential of soil: 0.500
 Texture 1                : SL-SCL-L
 Depth                [mm]:      279.40      965.20     2032.00
 Bulk Density Moist [g/cc]:        1.45        1.48        1.48
 Ave. AW Incl. Rock Frag  :        0.12        0.11        0.14
 Ksat. (est.)      [mm/hr]:      150.00       14.00       11.00
 Organic Carbon [weight %]:        0.73        0.24        0.08
 Clay           [weight %]:        8.50       25.50       19.50
 Silt           [weight %]:       23.76       17.90       38.06
 Sand           [weight %]:       67.74       56.60       42.44
 Rock Fragments   [vol. %]:        4.25        4.32        4.32
 Soil Albedo (Moist)      :        0.06        0.14        0.20
 Erosion K                :        0.28        0.24        0.28
 Salinity (EC, Form 5)    :        0.00        0.00        0.00
 Soil pH                  :        0.00        0.00        0.00
 Soil CACO3               :        0.00        0.00        0.00
                              
