 .Wgn file Subbasin: 54 STATION NAME:10631 4/24/2014 12:00:00 AM ArcSWAT 2012.10_0.14
  LATITUDE =  34.47 LONGITUDE = -87.87
  ELEV [m] = 246.90
  RAIN_YRS =  51.00
  9.66 12.19 17.70 22.98 26.78 30.90 32.50 32.21 28.82 23.28 17.08 11.58
 -0.93  0.63  5.23  9.94 14.27 18.66 20.82 20.01 16.53  9.58  4.80  0.77
  6.66  6.48  6.03  5.03  3.92  3.12  2.91  3.09  4.05  4.76  5.67  6.15
  6.30  5.64  5.36  5.00  4.00  2.89  2.11  2.59  4.23  5.14  5.58  5.94
 112.1 108.2 141.6 114.3 131.1 110.7 114.6  85.3 103.0  78.9 113.6 140.7
 13.56 16.86 19.60 16.22 16.33 15.84 16.29 15.82 17.99 14.53 15.61 18.96
  1.62  2.96  2.62  2.84  1.80  2.79  2.95  2.32  2.67  2.17  1.98  2.67
  0.24  0.25  0.25  0.22  0.23  0.23  0.22  0.16  0.18  0.15  0.22  0.23
  0.38  0.38  0.36  0.39  0.42  0.36  0.43  0.40  0.37  0.39  0.39  0.42
  8.69  8.09  8.84  7.90  8.73  8.05  8.62  6.62  6.63  6.02  7.83  8.93
 19.00 17.56 28.93 24.13 37.79 25.39 45.99 39.09 30.86 17.68 25.06 21.58
  7.50 10.56 13.95 18.81 21.83 23.17 22.67 20.57 17.51 13.87  9.76  7.12
 -2.20 -0.04  1.59  9.68 14.54 18.81 20.84 20.18 16.46 10.77  1.55 -0.70
  3.24  3.23  3.45  3.32  2.77  2.08  1.80  1.73  2.19  2.22  2.64  3.03
