Watershed atmospheric deposition file      .atm file 4/24/2014 12:00:00 AM ArcSWAT 2012.10_0.14




